      1 'GENROU' 1     8.0000      0.30000E-01  0.40000      0.50000E-01
          6.50       0.0000       1.8000       1.7000      0.30000
         0.30000      0.25000       0.06       0.0000       0.0000    /
	  1 'IEEET1'  1   0.00000E+00   5.000         0.02000       5.2000
                -4.1600         1.0000        0.83000       0.0754   1.246
                 0.00000E+00    2.8000        0.41000E-01   3.8000        0.36800    /
1 'TGOV1'   1   0.50000E-01    0.49000      33.00000       0.40000
                 2.1000         7.0000        0.00000E+00/
				 
      2 'GENROU' 1     8.0000      0.30000E-01  0.40000      0.50000E-01
          6.50       0.0000       1.8000       1.7000      0.30000
         0.30000      0.25000       0.0600       0.0000       0.0000    /
	2 'IEEET1'  1   0.00000E+00   5.000         0.02000       5.2000
                -4.1600         1.0000        0.83000       0.0754   1.246
                 0.00000E+00    2.8000        0.41000E-01   3.8000        0.36800    /
2 'TGOV1'   1   0.50000E-01    0.49000      33.00000       0.40000
                 2.1000         7.0000        0.00000E+00/
				 
      3 'GENROU' 1     8.0000      0.30000E-01  0.40000      0.50000E-01
          6.50       0.0000       1.8000       1.7000      0.30000
         0.30000      0.25000       0.0600       0.0000       0.0000    /
	3 'IEEET1'  1   0.00000E+00   5.000         0.02000       5.2000
                -4.1600         1.0000        0.83000       0.0754   1.246
                 0.00000E+00    2.8000        0.41000E-01   3.8000        0.36800    /
3 'TGOV1'   1   0.50000E-01    0.49000      33.00000       0.40000
                 2.1000         7.0000        0.00000E+00/
				 
      4 'GENROU' 1     8.0000      0.30000E-01  0.40000      0.50000E-01
          6.50       0.0000       1.8000       1.7000      0.30000
         0.30000      0.25000       0.0600       0.0000       0.0000    /
	4 'IEEET1'  1   0.00000E+00   5.000         0.02000       5.2000
                -4.1600         1.0000        0.83000       0.0754   1.246
                 0.00000E+00    2.8000        0.41000E-01   3.8000        0.36800    /
4 'TGOV1'   1   0.50000E-01    0.49000      33.00000       0.40000
                 2.1000         7.0000        0.00000E+00/
