  10000 'GENROU' 1     4.7500      0.60000E-01   1.5000      0.21000
          5.0160       0.0000       1.2500       1.2200      0.23200
         0.71500      0.12000      0.11900      0.27900      0.88600      /
  10000 'IEEET1' 1     0.0000      0.50000E-01   20.000       6.8120
          1.3950       1.0000      0.70000       0.0000      0.40000E-01
          0.0000       2.6750      0.41350       3.5670      0.90700    /
  10001 'GENROU' 1     4.7500      0.60000E-01   1.5000      0.21000
          5.0160       2.0000       1.2500       1.2200      0.23200
         0.71500      0.12000      0.11900      0.27900      0.88600      /
  10001 'IEEET1' 1     0.0000      0.50000E-01   20.000       6.8120
          1.3950       1.0000      0.70000       0.0000      0.40000E-01
          0.0000       2.6750      0.41350       3.5670      0.90700    /
  10002 'GENROU' 1     4.7500      0.60000E-01   1.5000      0.21000
          5.0160       0.0000       1.2500       1.2200      0.23200
         0.71500      0.12000      0.11900      0.27900      0.88600      /
//  10002 'IEEET1' 1     0.0000      0.50000E-01   20.000       6.8120
//          1.3950       1.0000      0.70000       0.0000      0.40000E-01
//          0.0000       2.6750      0.41350       3.5670      0.90700    /
  10003 'GENROU' 1     4.7500      0.60000E-01   1.5000      0.21000
          5.0160       0.0000       1.2500       1.2200      0.23200
         0.71500      0.12000      0.11900      0.27900      0.88600      /
  10003 'IEEET1' 1     0.0000      0.50000E-01   20.000       6.8120
          1.3950       1.0000      0.70000       0.0000      0.40000E-01
          0.0000       2.6750      0.41350       3.5670      0.90700    /
  10004 'GENROU' 1     4.7500      0.60000E-01   1.5000      0.21000
          5.0160       0.0000       1.2500       1.2200      0.23200
         0.71500      0.12000      0.11900      0.27900      0.88600      /
  10004 'TGOV1'  1    0.10000E-01  0.20000       1.5000      -1.5000
          2.6160       8.7200       0.0000      /
  10005 'GENROU' 1     5.6900      0.60000E-01   1.5000      0.14400
          2.6419       2.0000       2.1830       2.1570      0.41300
          1.2850      0.33900      0.24600      0.13400      0.61700      /
  10005 'IEEET1' 1     0.0000       400.00      0.60000E-01   18.300
         -18.300       1.0000      0.94200      0.30000E-01   1.0000
          0.0000       3.7650      0.81470       5.0200       2.6756    /
  10005 'TGOV1'  1    0.10000E-01  0.20000       1.5000      -1.5000
          2.6160       8.7200       0.0000      /
  10006 'GENROU' 1     4.8000      0.60000E-01  0.50000      0.60000E-01
          4.1296       2.0000       1.7000       1.6200      0.25600
         0.24500      0.18500      0.15500      0.12500      0.45000      /
  10006 'IEEET1' 1     0.0000       30.000      0.40000       4.5900
         -4.5900     -0.20000E-01  0.56000      0.50000E-01   1.3000
          0.0000       2.5875      0.72980       3.4500       1.3496    /
  10006 'TGOV1'  1    0.10000E-01  0.20000       1.5000      -1.5000
          2.6160       8.7200       0.0000      /
  10007 'GENROU' 1    0.84180      0.60000E-01  0.86760      0.60000E-01
          3.7040       2.0000       1.7668       1.7469      0.27380
          1.0104      0.22840      0.18340      0.26320      0.53510      /
  10007 'IEEET1' 1     0.0000       400.00      0.60000E-01   5.2700
         -5.2700       1.0000      0.92000      0.30000E-01   1.0000
          0.0000       2.4675      0.43510       3.2900      0.60010    /
  10007 'TGOV1'  1    0.10000E-01  0.20000       1.5000      -1.5000
          2.6160       8.7200       0.0000      /
  10008 'GENROU' 1     8.9700      0.60000E-01  0.50000      0.70000E-01
          4.7680       2.0000       1.2200       1.1600      0.17400
         0.25000      0.13400      0.78000E-02  0.10260      0.43200      /
  10008 'IEEET1' 1    0.60000E-01   25.000      0.20000       1.0000
         -1.0000     -0.60100E-01  0.67580      0.10800      0.35000
          0.0000       2.4975      0.94900E-01   3.3300      0.37030    /
  10008 'TGOV1'  1    0.10000E-01  0.20000       1.5000      -1.5000
          2.6160       8.7200       0.0000      /
  10009 'GENROU' 1     4.8000      0.60000E-01  0.50000      0.60000E-01
          4.1296       2.0000       1.7000       1.6200      0.25600
         0.24500      0.18500      0.15500      0.12500      0.45000      /
  10009 'IEEET1' 1     0.0000       30.000      0.40000       4.5900
         -4.5900     -0.20000E-01  0.56000      0.50000E-01   1.3000
          0.0000       2.5875      0.72980       3.4500       1.3496    /
  10009 'TGOV1'  1    0.10000E-01  0.20000       1.5000      -1.5000
          2.6160       8.7200       0.0000      /
  10010 'GENROU' 1     6.0000      0.60000E-01  0.90000      0.60000E-01
          2.4862       2.0000       2.0400       1.9600      0.26600
         0.26200      0.19300      0.15400      0.34000       1.1200      /
  10011 'GENROU' 1    0.84180      0.60000E-01  0.86760      0.60000E-01
          3.7040       2.0000       1.7668       1.7469      0.27380
          1.0104      0.22840      0.18340      0.26320      0.53510      /
  10011 'IEEET1' 1     0.0000       400.00      0.60000E-01   5.2700
         -5.2700       1.0000      0.92000      0.30000E-01   1.0000
          0.0000       2.4675      0.43510       3.2900      0.60010    /
  10011 'TGOV1'  1    0.10000E-01  0.20000       1.5000      -1.5000
          2.6160       8.7200       0.0000      /
  10012 'GENROU' 1     4.7500      0.60000E-01   1.5000      0.21000
          5.0160       0.0000       1.2500       1.2200      0.23200
         0.71500      0.12000      0.11900      0.27900      0.88600      /
  10012 'TGOV1'  1    0.10000E-01  0.20000       1.5000      -1.5000
          2.6160       8.7200       0.0000      /
  10013 'GENROU' 1     6.0000      0.60000E-01  0.90000      0.60000E-01
          2.4862       2.0000       2.0400       1.9600      0.26600
         0.26200      0.19300      0.15400      0.34000       1.1200      /
  10014 'GENROU' 1    0.84180      0.60000E-01  0.86760      0.60000E-01
          3.7040       2.0000       1.7668       1.7469      0.27380
          1.0104      0.22840      0.18340      0.26320      0.53510      /
  10014 'IEEET1' 1     0.0000       400.00      0.60000E-01   5.2700
         -5.2700       1.0000      0.92000      0.30000E-01   1.0000
          0.0000       2.4675      0.43510       3.2900      0.60010    /
  10014 'TGOV1'  1    0.10000E-01  0.20000       1.5000      -1.5000
          2.6160       8.7200       0.0000      /
  10015 'GENROU' 1     6.0000      0.60000E-01  0.90000      0.60000E-01
          2.4862       2.0000       2.0400       1.9600      0.26600
         0.26200      0.19300      0.15400      0.34000       1.1200      /
  10015 'IEEET1' 1     0.0000       50.000      0.60000E-01   1.0000
         -1.0000     -0.39300E-01  0.44000      0.70000E-01   1.0000
          0.0000       3.3750      0.64400E-01   4.5000      0.23630    /
  10015 'TGOV1'  1    0.10000E-01  0.20000       1.5000      -1.5000
          2.6160       8.7200       0.0000      /
  10016 'GENROU' 1     8.9700      0.60000E-01  0.50000      0.70000E-01
          4.7680       2.0000       1.2200       1.1600      0.17400
         0.25000      0.13400      0.78000E-02  0.10260      0.43200      /
  10016 'IEEET1' 1    0.60000E-01   25.000      0.20000       1.0000
         -1.0000     -0.60100E-01  0.67580      0.10800      0.35000
          0.0000       2.4975      0.94900E-01   3.3300      0.37030    /
  10016 'TGOV1'  1    0.10000E-01  0.20000       1.5000      -1.5000
          2.6160       8.7200       0.0000      /
  10017 'GENROU' 1    0.84180      0.60000E-01  0.86760      0.60000E-01
          3.7040       2.0000       1.7668       1.7469      0.27380
          1.0104      0.22840      0.18340      0.26320      0.53510      /
  10017 'IEEET1' 1     0.0000       400.00      0.60000E-01   5.2700
         -5.2700       1.0000      0.92000      0.30000E-01   1.0000
          0.0000       2.4675      0.43510       3.2900      0.60010    /
  10017 'TGOV1'  1    0.10000E-01  0.20000       1.5000      -1.5000
          2.6160       8.7200       0.0000      /
  10018 'GENROU' 1     4.8000      0.60000E-01  0.50000      0.60000E-01
          4.1296       2.0000       1.7000       1.6200      0.25600
         0.24500      0.18500      0.15500      0.12500      0.45000      /
  10018 'IEEET1' 1     0.0000       30.000      0.40000       4.5900
         -4.5900     -0.20000E-01  0.56000      0.50000E-01   1.3000
          0.0000       2.5875      0.72980       3.4500       1.3496    /
  10018 'TGOV1'  1    0.10000E-01  0.20000       1.5000      -1.5000
          2.6160       8.7200       0.0000      /
  10019 'GENROU' 1     5.6900      0.60000E-01   1.5000      0.14400
          2.6419       2.0000       2.1830       2.1570      0.41300
          1.2850      0.33900      0.24600      0.13400      0.61700      /
  10019 'IEEET1' 1     0.0000       400.00      0.60000E-01   18.300
         -18.300       1.0000      0.94200      0.30000E-01   1.0000
          0.0000       3.7650      0.81470       5.0200       2.6756    /
  10019 'TGOV1'  1    0.10000E-01  0.20000       1.5000      -1.5000
          2.6160       8.7200       0.0000      /
  10020 'GENROU' 1    0.84180      0.60000E-01  0.86760      0.60000E-01
          3.7040       2.0000       1.7668       1.7469      0.27380
          1.0104      0.22840      0.18340      0.26320      0.53510      /
  10020 'IEEET1' 1     0.0000       400.00      0.60000E-01   5.2700
         -5.2700       1.0000      0.92000      0.30000E-01   1.0000
          0.0000       2.4675      0.43510       3.2900      0.60010    /
  10020 'TGOV1'  1    0.10000E-01  0.20000       1.5000      -1.5000
          2.6160       8.7200       0.0000      /
  10021 'GENROU' 1     4.7500      0.60000E-01   1.5000      0.21000
          5.0160       0.0000       1.2500       1.2200      0.23200
         0.71500      0.12000      0.11900      0.27900      0.88600      /
  10021 'IEEET1' 1     0.0000      0.50000E-01   20.000       6.8120
          1.3950       1.0000      0.70000       0.0000      0.40000E-01
          0.0000       2.6750      0.41350       3.5670      0.90700    /
  10021 'TGOV1'  1    0.10000E-01  0.20000       1.5000      -1.5000
          2.6160       8.7200       0.0000      /
  10022 'GENROU' 1    0.84180      0.60000E-01  0.86760      0.60000E-01
          3.7040       2.0000       1.7668       1.7469      0.27380
          1.0104      0.22840      0.18340      0.26320      0.53510      /
  10022 'IEEET1' 1     0.0000       400.00      0.60000E-01   5.2700
         -5.2700       1.0000      0.92000      0.30000E-01   1.0000
          0.0000       2.4675      0.43510       3.2900      0.60010    /
  10022 'TGOV1'  1    0.10000E-01  0.20000       1.5000      -1.5000
          2.6160       8.7200       0.0000      /
  10023 'GENROU' 1     4.7500      0.60000E-01   1.5000      0.21000
          5.0160       0.0000       1.2500       1.2200      0.23200
         0.71500      0.12000      0.11900      0.27900      0.88600      /
  10024 'GENROU' 1    0.84180      0.60000E-01  0.86760      0.60000E-01
          3.7040       2.0000       1.7668       1.7469      0.27380
          1.0104      0.22840      0.18340      0.26320      0.53510      /
  10024 'IEEET1' 1     0.0000       400.00      0.60000E-01   5.2700
         -5.2700       1.0000      0.92000      0.30000E-01   1.0000
          0.0000       2.4675      0.43510       3.2900      0.60010    /
  10024 'TGOV1'  1    0.10000E-01  0.20000       1.5000      -1.5000
          2.6160       8.7200       0.0000      /
  10025 'GENROU' 1     4.8000      0.60000E-01  0.50000      0.60000E-01
          4.1296       2.0000       1.7000       1.6200      0.25600
         0.24500      0.18500      0.15500      0.12500      0.45000      /
  10025 'IEEET1' 1     0.0000       30.000      0.40000       4.5900
         -4.5900     -0.20000E-01  0.56000      0.50000E-01   1.3000
          0.0000       2.5875      0.72980       3.4500       1.3496    /
  10025 'TGOV1'  1    0.10000E-01  0.20000       1.5000      -1.5000
          2.6160       8.7200       0.0000      /
  10026 'GENROU' 1    0.84180      0.60000E-01  0.86760      0.60000E-01
          3.7040       2.0000       1.7668       1.7469      0.27380
          1.0104      0.22840      0.18340      0.26320      0.53510      /
  10026 'IEEET1' 1     0.0000       400.00      0.60000E-01   5.2700
         -5.2700       1.0000      0.92000      0.30000E-01   1.0000
          0.0000       2.4675      0.43510       3.2900      0.60010    /
  10026 'TGOV1'  1    0.10000E-01  0.20000       1.5000      -1.5000
          2.6160       8.7200       0.0000      /
  10027 'GENROU' 1     6.0000      0.60000E-01  0.90000      0.60000E-01
          2.4862       2.0000       2.0400       1.9600      0.26600
         0.26200      0.19300      0.15400      0.34000       1.1200      /
  10027 'IEEET1' 1     0.0000       50.000      0.60000E-01   1.0000
         -1.0000     -0.39300E-01  0.44000      0.70000E-01   1.0000
          0.0000       3.3750      0.64400E-01   4.5000      0.23630    /
  10028 'GENROU' 1     6.0000      0.60000E-01  0.90000      0.60000E-01
          2.4862       2.0000       2.0400       1.9600      0.26600
         0.26200      0.19300      0.15400      0.34000       1.1200      /
  10028 'IEEET1' 1     0.0000       50.000      0.60000E-01   1.0000
         -1.0000     -0.39300E-01  0.44000      0.70000E-01   1.0000
          0.0000       3.3750      0.64400E-01   4.5000      0.23630    /
  10029 'GENROU' 1     5.6900      0.60000E-01   1.5000      0.14400
          2.6419       2.0000       2.1830       2.1570      0.41300
          1.2850      0.33900      0.24600      0.13400      0.61700      /
  10029 'IEEET1' 1     0.0000       400.00      0.60000E-01   18.300
         -18.300       1.0000      0.94200      0.30000E-01   1.0000
          0.0000       3.7650      0.81470       5.0200       2.6756    /
  10029 'TGOV1'  1    0.10000E-01  0.20000       1.5000      -1.5000
          2.6160       8.7200       0.0000      /
  10030 'GENROU' 1     6.0000      0.60000E-01  0.90000      0.60000E-01
          2.4862       2.0000       2.0400       1.9600      0.26600
         0.26200      0.19300      0.15400      0.34000       1.1200      /
  10031 'GENROU' 1     5.6900      0.60000E-01   1.5000      0.14400
          2.6419       2.0000       2.1830       2.1570      0.41300
          1.2850      0.33900      0.24600      0.13400      0.61700      /
  10031 'IEEET1' 1     0.0000       400.00      0.60000E-01   18.300
         -18.300       1.0000      0.94200      0.30000E-01   1.0000
          0.0000       3.7650      0.81470       5.0200       2.6756    /
  10031 'TGOV1'  1    0.10000E-01  0.20000       1.5000      -1.5000
          2.6160       8.7200       0.0000      /
  10032 'GENROU' 1     3.8000      0.60000E-01  0.48000      0.60000E-01
          2.6312       2.0000       1.7000       1.6500      0.27000
         0.47000      0.20000      0.16000      0.90000E-01  0.40000      /
  10032 'IEEET1' 1     0.0000       200.00      0.39500       3.8400
         -3.8400       1.0000      0.60000E-01  0.63500E-01   1.0000
          0.0000       2.8800       0.0000       3.8400       0.0000    /
  10032 'TGOV1'  1    0.10000E-01  0.20000       1.5000      -1.5000
          2.6160       8.7200       0.0000      /
  10033 'GENROU' 1     4.8000      0.60000E-01  0.50000      0.60000E-01
          4.1296       2.0000       1.7000       1.6200      0.25600
         0.24500      0.18500      0.15500      0.12500      0.45000      /
  10033 'IEEET1' 1     0.0000       30.000      0.40000       4.5900
         -4.5900     -0.20000E-01  0.56000      0.50000E-01   1.3000
          0.0000       2.5875      0.72980       3.4500       1.3496    /
  10033 'TGOV1'  1    0.10000E-01  0.20000       1.5000      -1.5000
          2.6160       8.7200       0.0000      /
  10034 'GENROU' 1     5.6900      0.60000E-01   1.5000      0.14400
          2.6419       2.0000       2.1830       2.1570      0.41300
          1.2850      0.33900      0.24600      0.13400      0.61700      /
  10034 'IEEET1' 1     0.0000       400.00      0.60000E-01   18.300
         -18.300       1.0000      0.94200      0.30000E-01   1.0000
          0.0000       3.7650      0.81470       5.0200       2.6756    /
  10034 'TGOV1'  1    0.10000E-01  0.20000       1.5000      -1.5000
          2.6160       8.7200       0.0000      /
  10035 'GENROU' 1    0.84180      0.60000E-01  0.86760      0.60000E-01
          3.7040       2.0000       1.7668       1.7469      0.27380
          1.0104      0.22840      0.18340      0.26320      0.53510      /
  10035 'IEEET1' 1     0.0000       400.00      0.60000E-01   5.2700
         -5.2700       1.0000      0.92000      0.30000E-01   1.0000
          0.0000       2.4675      0.43510       3.2900      0.60010    /
  10035 'TGOV1'  1    0.10000E-01  0.20000       1.5000      -1.5000
          2.6160       8.7200       0.0000      /
  10036 'GENROU' 1     3.8000      0.60000E-01  0.48000      0.60000E-01
          2.6312       2.0000       1.7000       1.6500      0.27000
         0.47000      0.20000      0.16000      0.90000E-01  0.40000      /
  10036 'IEEET1' 1     0.0000       200.00      0.39500       3.8400
         -3.8400       1.0000      0.60000E-01  0.63500E-01   1.0000
          0.0000       2.8800       0.0000       3.8400       0.0000    /
  10036 'TGOV1'  1    0.10000E-01  0.20000       1.5000      -1.5000
          2.6160       8.7200       0.0000      /
  10037 'GENROU' 1     5.6900      0.60000E-01   1.5000      0.14400
          2.6419       2.0000       2.1830       2.1570      0.41300
          1.2850      0.33900      0.24600      0.13400      0.61700      /
  10037 'IEEET1' 1     0.0000       400.00      0.60000E-01   18.300
         -18.300       1.0000      0.94200      0.30000E-01   1.0000
          0.0000       3.7650      0.81470       5.0200       2.6756    /
  10037 'TGOV1'  1    0.10000E-01  0.20000       1.5000      -1.5000
          2.6160       8.7200       0.0000      /
  10038 'GENROU' 1     3.8000      0.60000E-01  0.48000      0.60000E-01
          2.6312       2.0000       1.7000       1.6500      0.27000
         0.47000      0.20000      0.16000      0.90000E-01  0.40000      /
  10038 'IEEET1' 1     0.0000       200.00      0.39500       3.8400
         -3.8400       1.0000      0.60000E-01  0.63500E-01   1.0000
          0.0000       2.8800       0.0000       3.8400       0.0000    /
  10038 'TGOV1'  1    0.10000E-01  0.20000       1.5000      -1.5000
          2.6160       8.7200       0.0000      /
  10039 'GENROU' 1     6.0000      0.60000E-01  0.90000      0.60000E-01
          2.4862       2.0000       2.0400       1.9600      0.26600
         0.26200      0.19300      0.15400      0.34000       1.1200      /
  10039 'IEEET1' 1     0.0000       50.000      0.60000E-01   1.0000
         -1.0000     -0.39300E-01  0.44000      0.70000E-01   1.0000
          0.0000       3.3750      0.64400E-01   4.5000      0.23630    /
  10039 'TGOV1'  1    0.10000E-01  0.20000       1.5000      -1.5000
          2.6160       8.7200       0.0000      /
  10040 'GENROU' 1    0.84180      0.60000E-01  0.86760      0.60000E-01
          3.7040       2.0000       1.7668       1.7469      0.27380
          1.0104      0.22840      0.18340      0.26320      0.53510      /
  10040 'IEEET1' 1     0.0000       400.00      0.60000E-01   5.2700
         -5.2700       1.0000      0.92000      0.30000E-01   1.0000
          0.0000       2.4675      0.43510       3.2900      0.60010    /
  10040 'TGOV1'  1    0.10000E-01  0.20000       1.5000      -1.5000
          2.6160       8.7200       0.0000      /
  10041 'GENROU' 1     6.0000      0.60000E-01  0.90000      0.60000E-01
          2.4862       2.0000       2.0400       1.9600      0.26600
         0.26200      0.19300      0.15400      0.34000       1.1200      /
  10041 'IEEET1' 1     0.0000       50.000      0.60000E-01   1.0000
         -1.0000     -0.39300E-01  0.44000      0.70000E-01   1.0000
          0.0000       3.3750      0.64400E-01   4.5000      0.23630    /
  10041 'TGOV1'  1    0.10000E-01  0.20000       1.5000      -1.5000
          2.6160       8.7200       0.0000      /
  10042 'GENROU' 1     6.0000      0.60000E-01  0.90000      0.60000E-01
          2.4862       2.0000       2.0400       1.9600      0.26600
         0.26200      0.19300      0.15400      0.34000       1.1200      /
  10042 'IEEET1' 1     0.0000       50.000      0.60000E-01   1.0000
         -1.0000     -0.39300E-01  0.44000      0.70000E-01   1.0000
          0.0000       3.3750      0.64400E-01   4.5000      0.23630    /
  10042 'TGOV1'  1    0.10000E-01  0.20000       1.5000      -1.5000
          2.6160       8.7200       0.0000      /
  10043 'GENROU' 1    0.84180      0.60000E-01  0.86760      0.60000E-01
          3.7040       2.0000       1.7668       1.7469      0.27380
          1.0104      0.22840      0.18340      0.26320      0.53510      /
  10043 'IEEET1' 1     0.0000       400.00      0.60000E-01   5.2700
         -5.2700       1.0000      0.92000      0.30000E-01   1.0000
          0.0000       2.4675      0.43510       3.2900      0.60010    /
  10043 'TGOV1'  1    0.10000E-01  0.20000       1.5000      -1.5000
          2.6160       8.7200       0.0000      /
  10044 'GENROU' 1     4.8000      0.60000E-01  0.50000      0.60000E-01
          4.1296       2.0000       1.7000       1.6200      0.25600
         0.24500      0.18500      0.15500      0.12500      0.45000      /
  10044 'IEEET1' 1     0.0000       30.000      0.40000       4.5900
         -4.5900     -0.20000E-01  0.56000      0.50000E-01   1.3000
          0.0000       2.5875      0.72980       3.4500       1.3496    /
  10044 'TGOV1'  1    0.10000E-01  0.20000       1.5000      -1.5000
          2.6160       8.7200       0.0000      /
  10045 'GENROU' 1     5.6900      0.60000E-01   1.5000      0.14400
          2.6419       2.0000       2.1830       2.1570      0.41300
          1.2850      0.33900      0.24600      0.13400      0.61700      /
  10045 'IEEET1' 1     0.0000       400.00      0.60000E-01   18.300
         -18.300       1.0000      0.94200      0.30000E-01   1.0000
          0.0000       3.7650      0.81470       5.0200       2.6756    /
  10045 'TGOV1'  1    0.10000E-01  0.20000       1.5000      -1.5000
          2.6160       8.7200       0.0000      /
  10046 'GENROU' 1     6.0000      0.60000E-01  0.90000      0.60000E-01
          2.4862       2.0000       2.0400       1.9600      0.26600
         0.26200      0.19300      0.15400      0.34000       1.1200      /
  10046 'IEEET1' 1     0.0000       50.000      0.60000E-01   1.0000
         -1.0000     -0.39300E-01  0.44000      0.70000E-01   1.0000
          0.0000       3.3750      0.64400E-01   4.5000      0.23630    /
  10046 'TGOV1'  1    0.10000E-01  0.20000       1.5000      -1.5000
          2.6160       8.7200       0.0000      /
  10047 'GENROU' 1     6.0000      0.60000E-01  0.90000      0.60000E-01
          2.4862       2.0000       2.0400       1.9600      0.26600
         0.26200      0.19300      0.15400      0.34000       1.1200      /
  10047 'IEEET1' 1     0.0000       50.000      0.60000E-01   1.0000
         -1.0000     -0.39300E-01  0.44000      0.70000E-01   1.0000
          0.0000       3.3750      0.64400E-01   4.5000      0.23630    /
  10048 'GENROU' 1    0.84180      0.60000E-01  0.86760      0.60000E-01
          3.7040       2.0000       1.7668       1.7469      0.27380
          1.0104      0.22840      0.18340      0.26320      0.53510      /
//  10048 'IEEET1' 1     0.0000       400.00      0.60000E-01   5.2700
//         -5.2700       1.0000      0.92000      0.30000E-01   1.0000
//          0.0000       2.4675      0.43510       3.2900      0.60010    /
//  10048 'TGOV1'  1    0.10000E-01  0.20000       1.5000      -1.5000
//          2.6160       8.7200       0.0000      /
  10049 'GENROU' 1     5.6900      0.60000E-01   1.5000      0.14400
          2.6419       2.0000       2.1830       2.1570      0.41300
          1.2850      0.33900      0.24600      0.13400      0.61700      /
  10049 'IEEET1' 1     0.0000       400.00      0.60000E-01   18.300
         -18.300       1.0000      0.94200      0.30000E-01   1.0000
          0.0000       3.7650      0.81470       5.0200       2.6756    /
  10049 'TGOV1'  1    0.10000E-01  0.20000       1.5000      -1.5000
          2.6160       8.7200       0.0000      /
  10050 'GENROU' 1     5.6900      0.60000E-01   1.5000      0.14400
          2.6419       2.0000       2.1830       2.1570      0.41300
          1.2850      0.33900      0.24600      0.13400      0.61700      /
  10050 'IEEET1' 1     0.0000       400.00      0.60000E-01   18.300
         -18.300       1.0000      0.94200      0.30000E-01   1.0000
          0.0000       3.7650      0.81470       5.0200       2.6756    /
  10050 'TGOV1'  1    0.10000E-01  0.20000       1.5000      -1.5000
          2.6160       8.7200       0.0000      /
  10051 'GENROU' 1    0.84180      0.60000E-01  0.86760      0.60000E-01
          3.7040       2.0000       1.7668       1.7469      0.27380
          1.0104      0.22840      0.18340      0.26320      0.53510      /
  10051 'IEEET1' 1     0.0000       400.00      0.60000E-01   5.2700
         -5.2700       1.0000      0.92000      0.30000E-01   1.0000
          0.0000       2.4675      0.43510       3.2900      0.60010    /
  10051 'TGOV1'  1    0.10000E-01  0.20000       1.5000      -1.5000
          2.6160       8.7200       0.0000      /
  10052 'GENROU' 1     5.6900      0.60000E-01   1.5000      0.14400
          2.6419       2.0000       2.1830       2.1570      0.41300
          1.2850      0.33900      0.24600      0.13400      0.61700      /
  10052 'IEEET1' 1     0.0000       400.00      0.60000E-01   18.300
         -18.300       1.0000      0.94200      0.30000E-01   1.0000
          0.0000       3.7650      0.81470       5.0200       2.6756    /
  10052 'TGOV1'  1    0.10000E-01  0.20000       1.5000      -1.5000
          2.6160       8.7200       0.0000      /
  10053 'GENROU' 1     5.6900      0.60000E-01   1.5000      0.14400
          2.6419       2.0000       2.1830       2.1570      0.41300
          1.2850      0.33900      0.24600      0.13400      0.61700      /
  10053 'IEEET1' 1     0.0000       400.00      0.60000E-01   18.300
         -18.300       1.0000      0.94200      0.30000E-01   1.0000
          0.0000       3.7650      0.81470       5.0200       2.6756    /
  10053 'TGOV1'  1    0.10000E-01  0.20000       1.5000      -1.5000
          2.6160       8.7200       0.0000      /
  10054 'GENROU' 1     8.9700      0.60000E-01  0.50000      0.70000E-01
          4.7680       2.0000       1.2200       1.1600      0.17400
         0.25000      0.13400      0.78000E-02  0.10260      0.43200      /
  10054 'IEEET1' 1    0.60000E-01   25.000      0.20000       1.0000
         -1.0000     -0.60100E-01  0.67580      0.10800      0.35000
          0.0000       2.4975      0.94900E-01   3.3300      0.37030    /
  10054 'TGOV1'  1    0.10000E-01  0.20000       1.5000      -1.5000
          2.6160       8.7200       0.0000      /
  10055 'GENROU' 1     5.6900      0.60000E-01   1.5000      0.14400
          2.6419       2.0000       2.1830       2.1570      0.41300
          1.2850      0.33900      0.24600      0.13400      0.61700      /
  10055 'IEEET1' 1     0.0000       400.00      0.60000E-01   18.300
         -18.300       1.0000      0.94200      0.30000E-01   1.0000
          0.0000       3.7650      0.81470       5.0200       2.6756    /
  10055 'TGOV1'  1    0.10000E-01  0.20000       1.5000      -1.5000
          2.6160       8.7200       0.0000      /
  10056 'GENROU' 1     8.9700      0.60000E-01  0.50000      0.70000E-01
          4.7680       2.0000       1.2200       1.1600      0.17400
         0.25000      0.13400      0.78000E-02  0.10260      0.43200      /
  10056 'IEEET1' 1    0.60000E-01   25.000      0.20000       1.0000
         -1.0000     -0.60100E-01  0.67580      0.10800      0.35000
          0.0000       2.4975      0.94900E-01   3.3300      0.37030    /
  10056 'TGOV1'  1    0.10000E-01  0.20000       1.5000      -1.5000
          2.6160       8.7200       0.0000      /
  10057 'GENROU' 1    0.84180      0.60000E-01  0.86760      0.60000E-01
          3.7040       2.0000       1.7668       1.7469      0.27380
          1.0104      0.22840      0.18340      0.26320      0.53510      /
  10057 'IEEET1' 1     0.0000       400.00      0.60000E-01   5.2700
         -5.2700       1.0000      0.92000      0.30000E-01   1.0000
          0.0000       2.4675      0.43510       3.2900      0.60010    /
  10057 'TGOV1'  1    0.10000E-01  0.20000       1.5000      -1.5000
          2.6160       8.7200       0.0000      /
  10058 'GENROU' 1     5.6900      0.60000E-01   1.5000      0.14400
          2.6419       2.0000       2.1830       2.1570      0.41300
          1.2850      0.33900      0.24600      0.13400      0.61700      /
  10058 'IEEET1' 1     0.0000       400.00      0.60000E-01   18.300
         -18.300       1.0000      0.94200      0.30000E-01   1.0000
          0.0000       3.7650      0.81470       5.0200       2.6756    /
  10058 'TGOV1'  1    0.10000E-01  0.20000       1.5000      -1.5000
          2.6160       8.7200       0.0000      /
  10059 'GENROU' 1     5.6900      0.60000E-01   1.5000      0.14400
          2.6419       2.0000       2.1830       2.1570      0.41300
          1.2850      0.33900      0.24600      0.13400      0.61700      /