    10000 'GENROU' 1   4.750000  0.060000  1.500000  0.210000  5.016000  0.000000  1.250000
  1.220000  0.232000  0.715000  0.120000  0.119000  0.279000  0.886000  /
  10000 'IEEET1' 1  0  0.05  20  6.812  1.395  1  0.7  0  0.04  0  2.675  0.4135  3.567  0.907  /
  10001 'GENROU' 1   4.750000  0.060000  1.500000  0.210000  5.016000  2.000000  1.250000
  1.220000  0.232000  0.715000  0.120000  0.119000  0.279000  0.886000  /
  10001 'IEEET1' 1  0  0.05  20  6.812  1.395  1  0.7  0  0.04  0  2.675  0.4135  3.567  0.907  /
  10002 'GENROU' 1   4.750000  0.060000  1.500000  0.210000  5.016000  0.000000  1.250000
  1.220000  0.232000  0.715000  0.120000  0.119000  0.279000  0.886000  /
  10002 'IEEET1' 1  0  0.05  20  6.812  1.395  1  0.7  0  0.04  0  2.675  0.4135  3.567  0.907  /
  10003 'GENROU' 1   4.750000  0.060000  1.500000  0.210000  5.016000  0.000000  1.250000
  1.220000  0.232000  0.715000  0.120000  0.119000  0.279000  0.886000  /
  10003 'IEEET1' 1  0  0.05  20  6.812  1.395  1  0.7  0  0.04  0  2.675  0.4135  3.567  0.907  /
  10004 'GENROU' 1   4.750000  0.060000  1.500000  0.210000  5.016000  0.000000  1.250000
  1.220000  0.232000  0.715000  0.120000  0.119000  0.279000  0.886000  /
  10004 'TGOV1' 1   0.01  0.2  1.5  -1.5  2.616  8.72  0  /
  10005 'GENROU' 1   5.690000  0.060000  1.500000  0.144000  2.641900  2.000000  2.183000
  2.157000  0.413000  1.285000  0.339000  0.246000  0.134000  0.617000  /
  10005 'IEEET1' 1  0  400  0.06  18.3  -18.299999  1  0.942  0.03  1  0  3.765  0.8147  5.02  2.6756  /
  10005 'TGOV1' 1   0.01  0.2  1.5  -1.5  2.616  8.72  0  /
  10006 'GENROU' 1   4.800000  0.060000  0.500000  0.060000  4.129600  2.000000  1.700000
  1.620000  0.256000  0.245000  0.185000  0.155000  0.125000  0.450000  /
  10006 'IEEET1' 1  0  30  0.4  4.59  -4.59  -0.02  0.56  0.05  1.3  0  2.5875  0.7298  3.45  1.3496  /
  10006 'TGOV1' 1   0.01  0.2  1.5  -1.5  2.616  8.72  0  /
  10007 'GENROU' 1   0.841800  0.060000  0.867600  0.060000  3.704000  2.000000  1.766800
  1.746900  0.273800  1.010400  0.228400  0.183400  0.263200  0.535100  /
  10007 'IEEET1' 1  0  400  0.06  5.27  -5.27  1  0.92  0.03  1  0  2.4675  0.4351  3.29  0.6001  /
  10007 'TGOV1' 1   0.01  0.2  1.5  -1.5  2.616  8.72  0  /
  10008 'GENROU' 1   8.970000  0.060000  0.500000  0.070000  4.768000  2.000000  1.220000
  1.160000  0.174000  0.250000  0.134000  0.007800  0.102600  0.432000  /
  10008 'TGOV1' 1   0.01  0.2  1.5  -1.5  2.616  8.72  0  /
  10008 'IEEET1' 1  0.06  25  0.2  1  -1  -0.0601  0.6758  0.108  0.35  0  2.4975  0.0949  3.33  0.3703  /
  10009 'GENROU' 1   4.800000  0.060000  0.500000  0.060000  4.129600  2.000000  1.700000
  1.620000  0.256000  0.245000  0.185000  0.155000  0.125000  0.450000  /
  10009 'TGOV1' 1   0.01  0.2  1.5  -1.5  2.616  8.72  0  /
  10009 'IEEET1' 1  0  30  0.4  4.59  -4.59  -0.02  0.56  0.05  1.3  0  2.5875  0.7298  3.45  1.3496  /
  10010 'GENROU' 1   6.000000  0.060000  0.900000  0.060000  2.486200  2.000000  2.040000
  1.960000  0.266000  0.262000  0.193000  0.154000  0.340000  1.120000  /
  10011 'GENROU' 1   0.841800  0.060000  0.867600  0.060000  3.704000  2.000000  1.766800
  1.746900  0.273800  1.010400  0.228400  0.183400  0.263200  0.535100  /
  10011 'TGOV1' 1   0.01  0.2  1.5  -1.5  2.616  8.72  0  /
  10011 'IEEET1' 1  0  400  0.06  5.27  -5.27  1  0.92  0.03  1  0  2.4675  0.4351  3.29  0.6001  /
  10012 'GENROU' 1   4.750000  0.060000  1.500000  0.210000  5.016000  0.000000  1.250000
  1.220000  0.232000  0.715000  0.120000  0.119000  0.279000  0.886000  /
  10012 'TGOV1' 1   0.01  0.2  1.5  -1.5  2.616  8.72  0  /
  10013 'GENROU' 1   6.000000  0.060000  0.900000  0.060000  2.486200  2.000000  2.040000
  1.960000  0.266000  0.262000  0.193000  0.154000  0.340000  1.120000  /
  10014 'GENROU' 1   0.841800  0.060000  0.867600  0.060000  3.704000  2.000000  1.766800
  1.746900  0.273800  1.010400  0.228400  0.183400  0.263200  0.535100  /
  10014 'TGOV1' 1   0.01  0.2  1.5  -1.5  2.616  8.72  0  /
    10014 'IEEET1' 1  0  400  0.06  5.27  -5.27  1  0.92  0.03  1  0  2.4675  0.4351  3.29  0.6001  /
  10015 'GENROU' 1   6.000000  0.060000  0.900000  0.060000  2.486200  2.000000  2.040000
  1.960000  0.266000  0.262000  0.193000  0.154000  0.340000  1.120000  /
  10015 'IEEET1' 1  0  50  0.06  1  -1  -0.0393  0.44  0.07  1  0  3.375  0.0644  4.5  0.2363  /
  10015 'TGOV1' 1   0.01  0.2  1.5  -1.5  2.616  8.72  0  /
  10016 'GENROU' 1   8.970000  0.060000  0.500000  0.070000  4.768000  2.000000  1.220000
  1.160000  0.174000  0.250000  0.134000  0.007800  0.102600  0.432000  /
  10016 'IEEET1' 1  0.06  25  0.2  1  -1  -0.0601  0.6758  0.108  0.35  0  2.4975  0.0949  3.33  0.3703  /
  10016 'TGOV1' 1   0.01  0.2  1.5  -1.5  2.616  8.72  0  /
  10017 'GENROU' 1   0.841800  0.060000  0.867600  0.060000  3.704000  2.000000  1.766800
  1.746900  0.273800  1.010400  0.228400  0.183400  0.263200  0.535100  /
  10017 'TGOV1' 1   0.01  0.2  1.5  -1.5  2.616  8.72  0  /
  10017 'IEEET1' 1  0  400  0.06  5.27  -5.27  1  0.92  0.03  1  0  2.4675  0.4351  3.29  0.6001  /
  10018 'GENROU' 1   4.800000  0.060000  0.500000  0.060000  4.129600  2.000000  1.700000
  1.620000  0.256000  0.245000  0.185000  0.155000  0.125000  0.450000  /
  10018 'TGOV1' 1   0.01  0.2  1.5  -1.5  2.616  8.72  0  /
  10018 'IEEET1' 1  0  30  0.4  4.59  -4.59  -0.02  0.56  0.05  1.3  0  2.5875  0.7298  3.45  1.3496  /
  10019 'GENROU' 1   5.690000  0.060000  1.500000  0.144000  2.641900  2.000000  2.183000
  2.157000  0.413000  1.285000  0.339000  0.246000  0.134000  0.617000  /
  10019 'TGOV1' 1   0.01  0.2  1.5  -1.5  2.616  8.72  0  /
  10019 'IEEET1' 1  0  400  0.06  18.3  -18.299999  1  0.942  0.03  1  0  3.765  0.8147  5.02  2.6756  /
  10020 'GENROU' 1   0.841800  0.060000  0.867600  0.060000  3.704000  2.000000  1.766800
  1.746900  0.273800  1.010400  0.228400  0.183400  0.263200  0.535100  /
  10020 'TGOV1' 1   0.01  0.2  1.5  -1.5  2.616  8.72  0  /
  10020 'IEEET1' 1  0  400  0.06  5.27  -5.27  1  0.92  0.03  1  0  2.4675  0.4351  3.29  0.6001  /
  10021 'GENROU' 1   4.750000  0.060000  1.500000  0.210000  5.016000  0.000000  1.250000
  1.220000  0.232000  0.715000  0.120000  0.119000  0.279000  0.886000  /
  10021 'TGOV1' 1   0.01  0.2  1.5  -1.5  2.616  8.72  0  /
  10021 'IEEET1' 1  0  0.05  20  6.812  1.395  1  0.7  0  0.04  0  2.675  0.4135  3.567  0.907  /
  10022 'GENROU' 1   0.841800  0.060000  0.867600  0.060000  3.704000  2.000000  1.766800
  1.746900  0.273800  1.010400  0.228400  0.183400  0.263200  0.535100  /
  10022 'IEEET1' 1  0  400  0.06  5.27  -5.27  1  0.92  0.03  1  0  2.4675  0.4351  3.29  0.6001  /
  10022 'TGOV1' 1   0.01  0.2  1.5  -1.5  2.616  8.72  0  /
  10023 'GENROU' 1   4.750000  0.060000  1.500000  0.210000  5.016000  0.000000  1.250000
  1.220000  0.232000  0.715000  0.120000  0.119000  0.279000  0.886000  /
  10024 'GENROU' 1   0.841800  0.060000  0.867600  0.060000  3.704000  2.000000  1.766800
  1.746900  0.273800  1.010400  0.228400  0.183400  0.263200  0.535100  /
  10024 'IEEET1' 1  0  400  0.06  5.27  -5.27  1  0.92  0.03  1  0  2.4675  0.4351  3.29  0.6001  /
  10024 'TGOV1' 1   0.01  0.2  1.5  -1.5  2.616  8.72  0  /
  10025 'GENROU' 1   4.800000  0.060000  0.500000  0.060000  4.129600  2.000000  1.700000
  1.620000  0.256000  0.245000  0.185000  0.155000  0.125000  0.450000  /
  10025 'IEEET1' 1  0  30  0.4  4.59  -4.59  -0.02  0.56  0.05  1.3  0  2.5875  0.7298  3.45  1.3496  /
  10025 'TGOV1' 1   0.01  0.2  1.5  -1.5  2.616  8.72  0  /
  10026 'GENROU' 1   0.841800  0.060000  0.867600  0.060000  3.704000  2.000000  1.766800
  1.746900  0.273800  1.010400  0.228400  0.183400  0.263200  0.535100  /
  10026 'TGOV1' 1   0.01  0.2  1.5  -1.5  2.616  8.72  0  /
  10026 'IEEET1' 1  0  400  0.06  5.27  -5.27  1  0.92  0.03  1  0  2.4675  0.4351  3.29  0.6001  /
  10027 'GENROU' 1   6.000000  0.060000  0.900000  0.060000  2.486200  2.000000  2.040000
  1.960000  0.266000  0.262000  0.193000  0.154000  0.340000  1.120000  /
  10027 'IEEET1' 1  0  50  0.06  1  -1  -0.0393  0.44  0.07  1  0  3.375  0.0644  4.5  0.2363  /
  10028 'GENROU' 1   6.000000  0.060000  0.900000  0.060000  2.486200  2.000000  2.040000
  1.960000  0.266000  0.262000  0.193000  0.154000  0.340000  1.120000  /
  10028 'IEEET1' 1  0  50  0.06  1  -1  -0.0393  0.44  0.07  1  0  3.375  0.0644  4.5  0.2363  /
  10029 'GENROU' 1   5.690000  0.060000  1.500000  0.144000  2.641900  2.000000  2.183000
  2.157000  0.413000  1.285000  0.339000  0.246000  0.134000  0.617000  /
  10029 'IEEET1' 1  0  400  0.06  18.3  -18.299999  1  0.942  0.03  1  0  3.765  0.8147  5.02  2.6756  /
  10029 'TGOV1' 1   0.01  0.2  1.5  -1.5  2.616  8.72  0  /
  10030 'GENROU' 1   6.000000  0.060000  0.900000  0.060000  2.486200  2.000000  2.040000
  1.960000  0.266000  0.262000  0.193000  0.154000  0.340000  1.120000  /
  10031 'GENROU' 1   5.690000  0.060000  1.500000  0.144000  2.641900  2.000000  2.183000
  2.157000  0.413000  1.285000  0.339000  0.246000  0.134000  0.617000  /
  10031 'IEEET1' 1  0  400  0.06  18.3  -18.299999  1  0.942  0.03  1  0  3.765  0.8147  5.02  2.6756  /
  10031 'TGOV1' 1   0.01  0.2  1.5  -1.5  2.616  8.72  0  /
  10032 'GENROU' 1   3.800000  0.060000  0.480000  0.060000  2.631200  2.000000  1.700000
  1.650000  0.270000  0.470000  0.200000  0.160000  0.090000  0.400000  /
  10032 'IEEET1' 1  0  200  0.395  3.84  -3.84  1  0.06  0.0635  1  0  2.88  0  3.84  0  /
  10032 'TGOV1' 1   0.01  0.2  1.5  -1.5  2.616  8.72  0  /
  10033 'GENROU' 1   4.800000  0.060000  0.500000  0.060000  4.129600  2.000000  1.700000
  1.620000  0.256000  0.245000  0.185000  0.155000  0.125000  0.450000  /
  10033 'TGOV1' 1   0.01  0.2  1.5  -1.5  2.616  8.72  0  /
  10033 'IEEET1' 1  0  30  0.4  4.59  -4.59  -0.02  0.56  0.05  1.3  0  2.5875  0.7298  3.45  1.3496  /
  10034 'GENROU' 1   5.690000  0.060000  1.500000  0.144000  2.641900  2.000000  2.183000
  2.157000  0.413000  1.285000  0.339000  0.246000  0.134000  0.617000  /
  10034 'IEEET1' 1  0  400  0.06  18.3  -18.299999  1  0.942  0.03  1  0  3.765  0.8147  5.02  2.6756  /
  10034 'TGOV1' 1   0.01  0.2  1.5  -1.5  2.616  8.72  0  /
  10035 'GENROU' 1   0.841800  0.060000  0.867600  0.060000  3.704000  2.000000  1.766800
  1.746900  0.273800  1.010400  0.228400  0.183400  0.263200  0.535100  /
  10035 'IEEET1' 1  0  400  0.06  5.27  -5.27  1  0.92  0.03  1  0  2.4675  0.4351  3.29  0.6001  /
  10035 'TGOV1' 1   0.01  0.2  1.5  -1.5  2.616  8.72  0  /
  10036 'GENROU' 1   3.800000  0.060000  0.480000  0.060000  2.631200  2.000000  1.700000
  1.650000  0.270000  0.470000  0.200000  0.160000  0.090000  0.400000  /
  10036 'IEEET1' 1  0  200  0.395  3.84  -3.84  1  0.06  0.0635  1  0  2.88  0  3.84  0  /
  10036 'TGOV1' 1   0.01  0.2  1.5  -1.5  2.616  8.72  0  /
  10037 'GENROU' 1   5.690000  0.060000  1.500000  0.144000  2.641900  2.000000  2.183000
  2.157000  0.413000  1.285000  0.339000  0.246000  0.134000  0.617000  /
  10037 'IEEET1' 1  0  400  0.06  18.3  -18.299999  1  0.942  0.03  1  0  3.765  0.8147  5.02  2.6756  /
  10037 'TGOV1' 1   0.01  0.2  1.5  -1.5  2.616  8.72  0  /
  10038 'GENROU' 1   3.800000  0.060000  0.480000  0.060000  2.631200  2.000000  1.700000
  1.650000  0.270000  0.470000  0.200000  0.160000  0.090000  0.400000  /
  10038 'IEEET1' 1  0  200  0.395  3.84  -3.84  1  0.06  0.0635  1  0  2.88  0  3.84  0  /
  10038 'TGOV1' 1   0.01  0.2  1.5  -1.5  2.616  8.72  0  /
  10039 'GENROU' 1   6.000000  0.060000  0.900000  0.060000  2.486200  2.000000  2.040000
  1.960000  0.266000  0.262000  0.193000  0.154000  0.340000  1.120000  /
  10039 'TGOV1' 1   0.01  0.2  1.5  -1.5  2.616  8.72  0  /
  10039 'IEEET1' 1  0  50  0.06  1  -1  -0.0393  0.44  0.07  1  0  3.375  0.0644  4.5  0.2363  /
  10040 'GENROU' 1   0.841800  0.060000  0.867600  0.060000  3.704000  2.000000  1.766800
  1.746900  0.273800  1.010400  0.228400  0.183400  0.263200  0.535100  /
  10040 'IEEET1' 1  0  400  0.06  5.27  -5.27  1  0.92  0.03  1  0  2.4675  0.4351  3.29  0.6001  /
  10040 'TGOV1' 1   0.01  0.2  1.5  -1.5  2.616  8.72  0  /
  10041 'GENROU' 1   6.000000  0.060000  0.900000  0.060000  2.486200  2.000000  2.040000
  1.960000  0.266000  0.262000  0.193000  0.154000  0.340000  1.120000  /
  10041 'TGOV1' 1   0.01  0.2  1.5  -1.5  2.616  8.72  0  /
  10041 'IEEET1' 1  0  50  0.06  1  -1  -0.0393  0.44  0.07  1  0  3.375  0.0644  4.5  0.2363  /
  10042 'GENROU' 1   6.000000  0.060000  0.900000  0.060000  2.486200  2.000000  2.040000
  1.960000  0.266000  0.262000  0.193000  0.154000  0.340000  1.120000  /
  10042 'IEEET1' 1  0  50  0.06  1  -1  -0.0393  0.44  0.07  1  0  3.375  0.0644  4.5  0.2363  /
  10042 'TGOV1' 1   0.01  0.2  1.5  -1.5  2.616  8.72  0  /
  10043 'GENROU' 1   0.841800  0.060000  0.867600  0.060000  3.704000  2.000000  1.766800
  1.746900  0.273800  1.010400  0.228400  0.183400  0.263200  0.535100  /
  10043 'IEEET1' 1  0  400  0.06  5.27  -5.27  1  0.92  0.03  1  0  2.4675  0.4351  3.29  0.6001  /
  10043 'TGOV1' 1   0.01  0.2  1.5  -1.5  2.616  8.72  0  /
  10044 'GENROU' 1   4.800000  0.060000  0.500000  0.060000  4.129600  2.000000  1.700000
  1.620000  0.256000  0.245000  0.185000  0.155000  0.125000  0.450000  /
  10044 'IEEET1' 1  0  30  0.4  4.59  -4.59  -0.02  0.56  0.05  1.3  0  2.5875  0.7298  3.45  1.3496  /
  10044 'TGOV1' 1   0.01  0.2  1.5  -1.5  2.616  8.72  0  /
  10045 'GENROU' 1   5.690000  0.060000  1.500000  0.144000  2.641900  2.000000  2.183000
  2.157000  0.413000  1.285000  0.339000  0.246000  0.134000  0.617000  /
  10045 'IEEET1' 1  0  400  0.06  18.3  -18.299999  1  0.942  0.03  1  0  3.765  0.8147  5.02  2.6756  /
  10045 'TGOV1' 1   0.01  0.2  1.5  -1.5  2.616  8.72  0  /
  10046 'GENROU' 1   6.000000  0.060000  0.900000  0.060000  2.486200  2.000000  2.040000
  1.960000  0.266000  0.262000  0.193000  0.154000  0.340000  1.120000  /
  10046 'TGOV1' 1   0.01  0.2  1.5  -1.5  2.616  8.72  0  /
  10046 'IEEET1' 1  0  50  0.06  1  -1  -0.0393  0.44  0.07  1  0  3.375  0.0644  4.5  0.2363  /
  10047 'GENROU' 1   6.000000  0.060000  0.900000  0.060000  2.486200  2.000000  2.040000
  1.960000  0.266000  0.262000  0.193000  0.154000  0.340000  1.120000  /
  10047 'IEEET1' 1  0  50  0.06  1  -1  -0.0393  0.44  0.07  1  0  3.375  0.0644  4.5  0.2363  /
  10048 'GENROU' 1   0.841800  0.060000  0.867600  0.060000  3.704000  2.000000  1.766800
  1.746900  0.273800  1.010400  0.228400  0.183400  0.263200  0.535100  /
  10048 'IEEET1' 1  0  400  0.06  5.27  -5.27  1  0.92  0.03  1  0  2.4675  0.4351  3.29  0.6001  /
  10048 'TGOV1' 1   0.01  0.2  1.5  -1.5  2.616  8.72  0  /
  10049 'GENROU' 1   5.690000  0.060000  1.500000  0.144000  2.641900  2.000000  2.183000
  2.157000  0.413000  1.285000  0.339000  0.246000  0.134000  0.617000  /
  10049 'IEEET1' 1  0  400  0.06  18.3  -18.299999  1  0.942  0.03  1  0  3.765  0.8147  5.02  2.6756  /
  10049 'TGOV1' 1   0.01  0.2  1.5  -1.5  2.616  8.72  0  /
  10050 'GENROU' 1   5.690000  0.060000  1.500000  0.144000  2.641900  2.000000  2.183000
  2.157000  0.413000  1.285000  0.339000  0.246000  0.134000  0.617000  /
  10050 'IEEET1' 1  0  400  0.06  18.3  -18.299999  1  0.942  0.03  1  0  3.765  0.8147  5.02  2.6756  /
  10050 'TGOV1' 1   0.01  0.2  1.5  -1.5  2.616  8.72  0  /
  10051 'GENROU' 1   0.841800  0.060000  0.867600  0.060000  3.704000  2.000000  1.766800
  1.746900  0.273800  1.010400  0.228400  0.183400  0.263200  0.535100  /
  10051 'IEEET1' 1  0  400  0.06  5.27  -5.27  1  0.92  0.03  1  0  2.4675  0.4351  3.29  0.6001  /
  10051 'TGOV1' 1   0.01  0.2  1.5  -1.5  2.616  8.72  0  /
  10052 'GENROU' 1   5.690000  0.060000  1.500000  0.144000  2.641900  2.000000  2.183000
  2.157000  0.413000  1.285000  0.339000  0.246000  0.134000  0.617000  /
  10052 'IEEET1' 1  0  400  0.06  18.3  -18.299999  1  0.942  0.03  1  0  3.765  0.8147  5.02  2.6756  /
  10052 'TGOV1' 1   0.01  0.2  1.5  -1.5  2.616  8.72  0  /
  10053 'GENROU' 1   5.690000  0.060000  1.500000  0.144000  2.641900  2.000000  2.183000
  2.157000  0.413000  1.285000  0.339000  0.246000  0.134000  0.617000  /
  10053 'IEEET1' 1  0  400  0.06  18.3  -18.299999  1  0.942  0.03  1  0  3.765  0.8147  5.02  2.6756  /
  10053 'TGOV1' 1   0.01  0.2  1.5  -1.5  2.616  8.72  0  /
  10054 'GENROU' 1   8.970000  0.060000  0.500000  0.070000  4.768000  2.000000  1.220000
  1.160000  0.174000  0.250000  0.134000  0.007800  0.102600  0.432000  /
  10054 'IEEET1' 1  0.06  25  0.2  1  -1  -0.0601  0.6758  0.108  0.35  0  2.4975  0.0949  3.33  0.3703 /
  10054 'TGOV1' 1   0.01  0.2  1.5  -1.5  2.616  8.72  0  /
  10055 'GENROU' 1   5.690000  0.060000  1.500000  0.144000  2.641900  2.000000  2.183000
  2.157000  0.413000  1.285000  0.339000  0.246000  0.134000  0.617000  /
  10055 'IEEET1' 1  0  400  0.06  18.3  -18.299999  1  0.942  0.03  1  0  3.765  0.8147  5.02  2.6756  /
  10055 'TGOV1' 1   0.01  0.2  1.5  -1.5  2.616  8.72  0  /
  10056 'GENROU' 1   8.970000  0.060000  0.500000  0.070000  4.768000  2.000000  1.220000
  1.160000  0.174000  0.250000  0.134000  0.007800  0.102600  0.432000  /
  10056 'IEEET1' 1  0.06  25  0.2  1  -1  -0.0601  0.6758  0.108  0.35  0  2.4975  0.0949  3.33  0.3703  /
  10056 'TGOV1' 1   0.01  0.2  1.5  -1.5  2.616  8.72  0  /
  10057 'GENROU' 1   0.841800  0.060000  0.867600  0.060000  3.704000  2.000000  1.766800
  1.746900  0.273800  1.010400  0.228400  0.183400  0.263200  0.535100  /
  10057 'IEEET1' 1  0  400  0.06  5.27  -5.27  1  0.92  0.03  1  0  2.4675  0.4351  3.29  0.6001  /
  10057 'TGOV1' 1   0.01  0.2  1.5  -1.5  2.616  8.72  0  /
  10058 'GENROU' 1   5.690000  0.060000  1.500000  0.144000  2.641900  2.000000  2.183000
  2.157000  0.413000  1.285000  0.339000  0.246000  0.134000  0.617000  /
  10058 'IEEET1' 1  0  400  0.06  18.3  -18.299999  1  0.942  0.03  1  0  3.765  0.8147  5.02  2.6756  /
  10058 'TGOV1' 1   0.01  0.2  1.5  -1.5  2.616  8.72  0  /
  10059 'GENROU' 1   5.690000  0.060000  1.500000  0.144000  2.641900  2.000000  2.183000
  2.157000  0.413000  1.285000  0.339000  0.246000  0.134000  0.617000  /
  10059 'IEEET1' 1  0  400  0.06  18.3  -18.299999  1  0.942  0.03  1  0  3.765  0.8147  5.02  2.6756  /
  10059 'TGOV1' 1   0.01  0.2  1.5  -1.5  2.616  8.72  0  /
  10060 'GENROU' 1   4.800000  0.060000  0.500000  0.060000  4.129600  2.000000  1.700000
  1.620000  0.256000  0.245000  0.185000  0.155000  0.125000  0.450000  /
  10060 'IEEET1' 1  0  30  0.4  4.59  -4.59  -0.02  0.56  0.05  1.3  0  2.5875  0.7298  3.45  1.3496  /
  10060 'TGOV1' 1   0.01  0.2  1.5  -1.5  2.616  8.72  0  /
  10061 'GENROU' 1   6.000000  0.060000  0.900000  0.060000  2.486200  2.000000  2.040000
  1.960000  0.266000  0.262000  0.193000  0.154000  0.340000  1.120000  /
  10061 'IEEET1' 1  0  50  0.06  1  -1  -0.0393  0.44  0.07  1  0  3.375  0.0644  4.5  0.2363  /
  10062 'GENROU' 1   6.000000  0.060000  0.900000  0.060000  2.486200  2.000000  2.040000
  1.960000  0.266000  0.262000  0.193000  0.154000  0.340000  1.120000  /
  10062 'TGOV1' 1   0.01  0.2  1.5  -1.5  2.616  8.72  0  /
  10062 'IEEET1' 1  0  50  0.06  1  -1  -0.0393  0.44  0.07  1  0  3.375  0.0644  4.5  0.2363  /
  10063 'GENROU' 1   6.000000  0.060000  0.900000  0.060000  2.486200  2.000000  2.040000
  1.960000  0.266000  0.262000  0.193000  0.154000  0.340000  1.120000  /
  10063 'TGOV1' 1   0.01  0.2  1.5  -1.5  2.616  8.72  0  /
  10063 'IEEET1' 1  0  50  0.06  1  -1  -0.0393  0.44  0.07  1  0  3.375  0.0644  4.5  0.2363  /
  10064 'GENROU' 1   4.750000  0.060000  1.500000  0.210000  5.016000  0.000000  1.250000
  1.220000  0.232000  0.715000  0.120000  0.119000  0.279000  0.886000  /
  10064 'IEEET1' 1  0  0.05  20  6.812  1.395  1  0.7  0  0.04  0  2.675  0.4135  3.567  0.907  /
  10065 'GENROU' 1   8.970000  0.060000  0.500000  0.070000  4.768000  2.000000  1.220000
  1.160000  0.174000  0.250000  0.134000  0.007800  0.102600  0.432000  /
  10065 'IEEET1' 1  0.06  25  0.2  1  -1  -0.0601  0.6758  0.108  0.35  0  2.4975  0.0949  3.33  0.3703  /
  10066 'GENROU' 1   8.970000  0.060000  0.500000  0.070000  4.768000  2.000000  1.220000
  1.160000  0.174000  0.250000  0.134000  0.007800  0.102600  0.432000  /
  10066 'IEEET1' 1  0.06  25  0.2  1  -1  -0.0601  0.6758  0.108  0.35  0  2.4975  0.0949  3.33  0.3703  /
  10067 'GENROU' 1   8.970000  0.060000  0.500000  0.070000  4.768000  2.000000  1.220000
  1.160000  0.174000  0.250000  0.134000  0.007800  0.102600  0.432000  /
  10067 'TGOV1' 1   0.01  0.2  1.5  -1.5  2.616  8.72  0  /
  10067 'IEEET1' 1  0.06  25  0.2  1  -1  -0.0601  0.6758  0.108  0.35  0  2.4975  0.0949  3.33  0.3703  /
  10068 'GENROU' 1   4.750000  0.060000  1.500000  0.210000  5.016000  0.000000  1.250000
  1.220000  0.232000  0.715000  0.120000  0.119000  0.279000  0.886000  /
  10068 'TGOV1' 1   0.01  0.2  1.5  -1.5  2.616  8.72  0  /
  10068 'IEEET1' 1  0  0.05  20  6.812  1.395  1  0.7  0  0.04  0  2.675  0.4135  3.567  0.907  /


#---------------Composite load model below-----------------------------
       1 'USRLOD'  1  'CMLDBLU2'        12    1    2  133   27  146   48   0     0
         -1.2500       0.0000      0.40000E-01  0.40000E-01  0.75000
         0.80000E-01   1.0000       1.0000       0.0000      0.90000
          1.1000      0.62500E-02   1.0250       1.0400       30.000
          5.0000       0.0000       0.0000      0.10700      0.16600
         0.31000E-01  0.44400      0.88000E-01   1.0000      0.70000
         0.50000     -0.99700       2.0000      0.48100       1.0000
         0.51900       0.0000       2.0000     -0.50001       1.0000
          1.5000      -1.0000

          3.0000      0.75000      0.40000E-01   1.8000      0.12000
         0.10400      0.95000E-01  0.21000E-02  0.10000       0.0000
         0.70000      0.10000      0.20000       1.0000       99999.
         0.50000      0.20000E-01  0.70000      0.70000      0.10000

          3.0000      0.75000      0.30000E-01   1.8000      0.19000
         0.14000      0.20000      0.26000E-02  0.50000       2.0000
         0.60000      0.20000E-01  0.20000      0.75000      0.50000E-01
         0.50000      0.20000E-01  0.30000      0.65000      0.50000E-01

          3.0000      0.75000      0.30000E-01   1.8000      0.19000
         0.14000      0.20000      0.26000E-02  0.10000       2.0000
         0.65000      0.20000E-01  0.20000       1.0000       9999.0
         0.50000      0.20000E-01  0.30000      0.65000      0.10000

         0.32000E-01   0.30000       0.20000E-01   0.50000E-01
          1.0000       0.98000       0.45000       0.10000
         0.10000        0.0000        0.0000        1.0000
          6.0000        2.0000        12.000        3.2000
          11.000        2.5000       0.86000       0.20000
         0.95000        1.0000       -3.3000       0.50000
         0.40000       0.60000       0.50000        15.000
         0.70000        1.9000       0.10000       0.60000
         0.20000E-01    0.0000        9999.0        1.0000      /
     2 'USRLOD'  1  'CMLDBLU2'        12    1    2  133   27  146   48   0     0
         -1.2500       0.0000      0.40000E-01  0.40000E-01  0.75000
         0.80000E-01   1.0000       1.0000       0.0000      0.90000
          1.1000      0.62500E-02   1.0250       1.0400       30.000
          5.0000       0.0000       0.0000      0.10700      0.16600
         0.31000E-01  0.44400      0.88000E-01   1.0000      0.70000
         0.50000     -0.99700       2.0000      0.48100       1.0000
         0.51900       0.0000       2.0000     -0.50001       1.0000
          1.5000      -1.0000

          3.0000      0.75000      0.40000E-01   1.8000      0.12000
         0.10400      0.95000E-01  0.21000E-02  0.10000       0.0000
         0.70000      0.10000      0.20000       1.0000       99999.
         0.50000      0.20000E-01  0.70000      0.70000      0.10000

          3.0000      0.75000      0.30000E-01   1.8000      0.19000
         0.14000      0.20000      0.26000E-02  0.50000       2.0000
         0.60000      0.20000E-01  0.20000      0.75000      0.50000E-01
         0.50000      0.20000E-01  0.30000      0.65000      0.50000E-01

          3.0000      0.75000      0.30000E-01   1.8000      0.19000
         0.14000      0.20000      0.26000E-02  0.10000       2.0000
         0.65000      0.20000E-01  0.20000       1.0000       9999.0
         0.50000      0.20000E-01  0.30000      0.65000      0.10000

         0.32000E-01   0.30000       0.20000E-01   0.50000E-01
          1.0000       0.98000       0.45000       0.10000
         0.10000        0.0000        0.0000        1.0000
          6.0000        2.0000        12.000        3.2000
          11.000        2.5000       0.86000       0.20000
         0.95000        1.0000       -3.3000       0.50000
         0.40000       0.60000       0.50000        15.000
         0.70000        1.9000       0.10000       0.60000
         0.20000E-01    0.0000        9999.0        1.0000      /
     5 'USRLOD'  1  'CMLDBLU2'        12    1    2  133   27  146   48   0     0
         -1.2500       0.0000      0.40000E-01  0.40000E-01  0.75000
         0.80000E-01   1.0000       1.0000       0.0000      0.90000
          1.1000      0.62500E-02   1.0250       1.0400       30.000
          5.0000       0.0000       0.0000      0.10700      0.16600
         0.31000E-01  0.44400      0.88000E-01   1.0000      0.70000
         0.50000     -0.99700       2.0000      0.48100       1.0000
         0.51900       0.0000       2.0000     -0.50001       1.0000
          1.5000      -1.0000

          3.0000      0.75000      0.40000E-01   1.8000      0.12000
         0.10400      0.95000E-01  0.21000E-02  0.10000       0.0000
         0.70000      0.10000      0.20000       1.0000       99999.
         0.50000      0.20000E-01  0.70000      0.70000      0.10000

          3.0000      0.75000      0.30000E-01   1.8000      0.19000
         0.14000      0.20000      0.26000E-02  0.50000       2.0000
         0.60000      0.20000E-01  0.20000      0.75000      0.50000E-01
         0.50000      0.20000E-01  0.30000      0.65000      0.50000E-01

          3.0000      0.75000      0.30000E-01   1.8000      0.19000
         0.14000      0.20000      0.26000E-02  0.10000       2.0000
         0.65000      0.20000E-01  0.20000       1.0000       9999.0
         0.50000      0.20000E-01  0.30000      0.65000      0.10000

         0.32000E-01   0.30000       0.20000E-01   0.50000E-01
          1.0000       0.98000       0.45000       0.10000
         0.10000        0.0000        0.0000        1.0000
          6.0000        2.0000        12.000        3.2000
          11.000        2.5000       0.86000       0.20000
         0.95000        1.0000       -3.3000       0.50000
         0.40000       0.60000       0.50000        15.000
         0.70000        1.9000       0.10000       0.60000
         0.20000E-01    0.0000        9999.0        1.0000      /
     6 'USRLOD'  1  'CMLDBLU2'        12    1    2  133   27  146   48   0     0
         -1.2500       0.0000      0.40000E-01  0.40000E-01  0.75000
         0.80000E-01   1.0000       1.0000       0.0000      0.90000
          1.1000      0.62500E-02   1.0250       1.0400       30.000
          5.0000       0.0000       0.0000      0.10700      0.16600
         0.31000E-01  0.44400      0.88000E-01   1.0000      0.70000
         0.50000     -0.99700       2.0000      0.48100       1.0000
         0.51900       0.0000       2.0000     -0.50001       1.0000
          1.5000      -1.0000

          3.0000      0.75000      0.40000E-01   1.8000      0.12000
         0.10400      0.95000E-01  0.21000E-02  0.10000       0.0000
         0.70000      0.10000      0.20000       1.0000       99999.
         0.50000      0.20000E-01  0.70000      0.70000      0.10000

          3.0000      0.75000      0.30000E-01   1.8000      0.19000
         0.14000      0.20000      0.26000E-02  0.50000       2.0000
         0.60000      0.20000E-01  0.20000      0.75000      0.50000E-01
         0.50000      0.20000E-01  0.30000      0.65000      0.50000E-01

          3.0000      0.75000      0.30000E-01   1.8000      0.19000
         0.14000      0.20000      0.26000E-02  0.10000       2.0000
         0.65000      0.20000E-01  0.20000       1.0000       9999.0
         0.50000      0.20000E-01  0.30000      0.65000      0.10000

         0.32000E-01   0.30000       0.20000E-01   0.50000E-01
          1.0000       0.98000       0.45000       0.10000
         0.10000        0.0000        0.0000        1.0000
          6.0000        2.0000        12.000        3.2000
          11.000        2.5000       0.86000       0.20000
         0.95000        1.0000       -3.3000       0.50000
         0.40000       0.60000       0.50000        15.000
         0.70000        1.9000       0.10000       0.60000
         0.20000E-01    0.0000        9999.0        1.0000      /
     8 'USRLOD'  1  'CMLDBLU2'        12    1    2  133   27  146   48   0     0
         -1.2500       0.0000      0.40000E-01  0.40000E-01  0.75000
         0.80000E-01   1.0000       1.0000       0.0000      0.90000
          1.1000      0.62500E-02   1.0250       1.0400       30.000
          5.0000       0.0000       0.0000      0.10700      0.16600
         0.31000E-01  0.44400      0.88000E-01   1.0000      0.70000
         0.50000     -0.99700       2.0000      0.48100       1.0000
         0.51900       0.0000       2.0000     -0.50001       1.0000
          1.5000      -1.0000

          3.0000      0.75000      0.40000E-01   1.8000      0.12000
         0.10400      0.95000E-01  0.21000E-02  0.10000       0.0000
         0.70000      0.10000      0.20000       1.0000       99999.
         0.50000      0.20000E-01  0.70000      0.70000      0.10000

          3.0000      0.75000      0.30000E-01   1.8000      0.19000
         0.14000      0.20000      0.26000E-02  0.50000       2.0000
         0.60000      0.20000E-01  0.20000      0.75000      0.50000E-01