0,   100.00, 33, 0, 1, 60.00     / PSS(R)E-33.12   THU, JUL 09 2020  10:21
THIS IS A SYNTHETIC POWER SYSTEM MODEL THAT DOES NOT REPRESE
DATA RESEARCH PROJECT AND CONTAINS NO CEII.
  1001,'ODESSA 2    ', 115.0000,1,   1,   9,   1,1.01415, -46.2459,1.10000,0.90000,1.10000,0.90000
  1002,'PRESIDIO    ', 115.0000,1,   1,   9,   1,1.02747, -47.8612,1.10000,0.90000,1.10000,0.90000
  1003,'O DONNEL    ', 115.0000,1,   1,   9,   1,1.02536, -37.7115,1.10000,0.90000,1.10000,0.90000
  1004,'O DONNEL    ', 230.0000,2,   1,   9,   1,1.02817, -38.0176,1.10000,0.90000,1.10000,0.90000
  1005,'BIG SPRI    ', 115.0000,1,   1,   9,   1,1.01880, -40.3273,1.10000,0.90000,1.10000,0.90000
  1006,'BIG SPRI    ',  13.8000,1,   1,   9,   1,1.01365, -39.5771,1.10000,0.90000,1.10000,0.90000
  1007,'VAN HORN    ', 115.0000,1,   1,   9,   1,1.03000, -47.2321,1.10000,0.90000,1.10000,0.90000
  1008,'IRAAN 2     ', 115.0000,1,   1,   9,   1,1.02092, -43.0147,1.10000,0.90000,1.10000,0.90000
  1009,'IRAAN 2     ',  13.8000,1,   1,   9,   1,1.01060, -41.7316,1.10000,0.90000,1.10000,0.90000
  1010,'PRESIDIO    ', 115.0000,1,   1,   9,   1,1.03000, -47.2390,1.10000,0.90000,1.10000,0.90000
  1011,'PRESIDIO    ',  22.0000,1,   1,   9,   1,1.03018, -47.1383,1.10000,0.90000,1.10000,0.90000
  1012,'SANDERSO    ', 115.0000,1,   1,   9,   1,1.03000, -52.6046,1.10000,0.90000,1.10000,0.90000
  1013,'MONAHANS    ', 115.0000,1,   1,   9,   1,1.01555, -43.2421,1.10000,0.90000,1.10000,0.90000
  1014,'GRANDFAL    ', 115.0000,1,   1,   9,   1,1.01943, -42.2924,1.10000,0.90000,1.10000,0.90000
  1015,'MARFA 0     ', 115.0000,1,   1,   9,   1,1.03374, -47.7228,1.10000,0.90000,1.10000,0.90000
  1016,'GARDEN C    ', 115.0000,1,   1,   9,   1,1.02481, -42.6146,1.10000,0.90000,1.10000,0.90000
  1017,'ODESSA 4    ', 115.0000,1,   1,   9,   1,1.00826, -46.5199,1.10000,0.90000,1.10000,0.90000
  1018,'NOTREES     ', 115.0000,1,   1,   9,   1,1.00586, -47.1850,1.10000,0.90000,1.10000,0.90000
  1019,'MIDLAND     ', 115.0000,1,   1,   9,   1,1.03000, -46.1650,1.10000,0.90000,1.10000,0.90000
  1020,'BIG SPRI    ', 115.0000,1,   1,   9,   1,1.03000, -41.5816,1.10000,0.90000,1.10000,0.90000
  1021,'BIG SPRI    ',  13.8000,2,   1,   9,   1,1.00861, -39.0467,1.10000,0.90000,1.10000,0.90000
  1022,'O DONNEL    ', 115.0000,1,   1,   9,   1,1.02650, -37.1758,1.10000,0.90000,1.10000,0.90000
  1023,'O DONNEL    ',  13.8000,2,   1,   9,   1,1.01000, -33.7590,1.10000,0.90000,1.10000,0.90000
  1024,'ODESSA 6    ', 115.0000,1,   1,   9,   1,1.00554, -47.7085,1.10000,0.90000,1.10000,0.90000
  1025,'BIG SPRI    ', 115.0000,1,   1,   9,   1,1.02416, -40.6818,1.10000,0.90000,1.10000,0.90000
  1026,'BIG SPRI    ',  13.8000,2,   1,   9,   1,1.00451, -37.9545,1.10000,0.90000,1.10000,0.90000
  1027,'MIDLAND     ', 115.0000,1,   1,   9,   1,1.03000, -46.8760,1.10000,0.90000,1.10000,0.90000
  1028,'COAHOMA     ', 115.0000,1,   1,   9,   1,1.03114, -37.3238,1.10000,0.90000,1.10000,0.90000
  1029,'MIDLAND     ', 115.0000,1,   1,   9,   1,1.02617, -47.4297,1.10000,0.90000,1.10000,0.90000
  1030,'ALPINE 0    ', 115.0000,1,   1,   9,   1,1.02823, -45.2856,1.10000,0.90000,1.10000,0.90000
  1031,'FORT DAV    ', 115.0000,1,   1,   9,   1,1.02393, -45.7153,1.10000,0.90000,1.10000,0.90000
  1032,'MCCAMEY     ', 115.0000,1,   1,   9,   1,1.01090, -43.2937,1.10000,0.90000,1.10000,0.90000
  1033,'MCCAMEY     ', 230.0000,2,   1,   9,   1,1.00797, -43.9482,1.10000,0.90000,1.10000,0.90000
  1034,'BIG SPRI    ', 115.0000,1,   1,   9,   1,1.01192, -40.3444,1.10000,0.90000,1.10000,0.90000
  1035,'BIG SPRI    ',  13.8000,1,   1,   9,   1,1.00181, -39.0642,1.10000,0.90000,1.10000,0.90000
  1036,'CRANE 0     ', 115.0000,1,   1,   9,   1,1.00385, -43.6610,1.10000,0.90000,1.10000,0.90000
  1037,'ODESSA 5    ', 115.0000,1,   1,   9,   1,1.00592, -46.8677,1.10000,0.90000,1.10000,0.90000
  1038,'FORT STO    ', 115.0000,1,   1,   9,   1,1.01865, -42.2811,1.10000,0.90000,1.10000,0.90000
  1039,'FORT STO    ',  22.0000,2,   1,   9,   1,1.00060, -40.1995,1.10000,0.90000,1.10000,0.90000
  1040,'ANDREWS     ', 115.0000,1,   1,   9,   1,1.00967, -48.0731,1.10000,0.90000,1.10000,0.90000
  1041,'FORSAN 0    ', 115.0000,1,   1,   9,   1,1.01060, -39.5295,1.10000,0.90000,1.10000,0.90000
  1042,'FORSAN 1    ',  13.8000,2,   1,   9,   1,1.00000, -36.5444,1.10000,0.90000,1.10000,0.90000
  1043,'FORSAN 2    ',  13.8000,1,   1,   9,   1,0.99999, -38.2785,1.10000,0.90000,1.10000,0.90000
  1044,'BIG LAKE    ', 115.0000,1,   1,   9,   1,1.02610, -48.0713,1.10000,0.90000,1.10000,0.90000
  1045,'MIDLAND     ', 115.0000,1,   1,   9,   1,1.01406, -47.2326,1.10000,0.90000,1.10000,0.90000
  1046,'OZONA 0     ', 115.0000,1,   1,   9,   1,1.03000, -49.5356,1.10000,0.90000,1.10000,0.90000
  1047,'MONAHANS    ', 115.0000,1,   1,   9,   1,1.01202, -41.3507,1.10000,0.90000,1.10000,0.90000
  1048,'MONAHANS    ',  18.0000,2,   1,   9,   1,1.00000, -37.6779,1.10000,0.90000,1.10000,0.90000
  1049,'MONAHANS    ',  18.0000,2,   1,   9,   1,1.00000, -34.8176,1.10000,0.90000,1.10000,0.90000
  1050,'MONAHANS    ',  18.0000,2,   1,   9,   1,1.01202, -41.3507,1.10000,0.90000,1.10000,0.90000
  1051,'MONAHANS    ',  18.0000,2,   1,   9,   1,1.01202, -41.3507,1.10000,0.90000,1.10000,0.90000
  1052,'MONAHANS    ',  18.0000,2,   1,   9,   1,1.01202, -41.3507,1.10000,0.90000,1.10000,0.90000
  1053,'MONAHANS    ', 230.0000,2,   1,   9,   1,1.00970, -41.6411,1.10000,0.90000,1.10000,0.90000
  1054,'STANTON     ', 115.0000,1,   1,   9,   1,1.01879, -43.2539,1.10000,0.90000,1.10000,0.90000
  1055,'ODONNELL    ', 115.0000,1,   1,   9,   1,1.01993, -38.6208,1.10000,0.90000,1.10000,0.90000
  1056,'LENORAH     ', 115.0000,1,   1,   9,   1,1.03000, -43.4197,1.10000,0.90000,1.10000,0.90000
  1057,'LENORAH     ',  18.0000,2,   1,   9,   1,1.00714, -40.0395,1.10000,0.90000,1.10000,0.90000
  1058,'IRAAN 3     ', 115.0000,1,   1,   9,   1,1.02643, -44.7185,1.10000,0.90000,1.10000,0.90000
  1059,'IRAAN 3     ',  22.0000,2,   1,   9,   1,1.02643, -44.7185,1.10000,0.90000,1.10000,0.90000
  1060,'IRAAN 3     ',  22.0000,2,   1,   9,   1,1.02643, -44.7185,1.10000,0.90000,1.10000,0.90000
  1061,'BIG SPRI    ', 115.0000,1,   1,   9,   1,1.02256, -40.4558,1.10000,0.90000,1.10000,0.90000
  1062,'BIG SPRI    ',  13.8000,1,   1,   9,   1,1.02259, -40.4373,1.10000,0.90000,1.10000,0.90000
  1063,'BIG SPRI    ',  13.8000,2,   1,   9,   1,1.02396, -38.1885,1.10000,0.90000,1.10000,0.90000
  1064,'ODESSA 3    ', 115.0000,1,   1,   9,   1,1.00919, -47.1877,1.10000,0.90000,1.10000,0.90000
  1065,'BIG SPRI    ', 115.0000,1,   1,   9,   1,1.01226, -39.6502,1.10000,0.90000,1.10000,0.90000
  1066,'BIG SPRI    ',  13.8000,2,   1,   9,   1,1.00000, -36.7499,1.10000,0.90000,1.10000,0.90000
  1067,'BIG SPRI    ', 115.0000,1,   1,   9,   1,1.01057, -40.0937,1.10000,0.90000,1.10000,0.90000
  1068,'MIDLAND     ', 115.0000,1,   1,   9,   1,0.99502, -45.2384,1.10000,0.90000,1.10000,0.90000
  1069,'IRAAN 1     ', 115.0000,1,   1,   9,   1,1.02595, -43.4256,1.10000,0.90000,1.10000,0.90000
  1070,'IRAAN 1     ',  13.8000,2,   1,   9,   1,1.04000, -41.7143,1.10000,0.90000,1.10000,0.90000
  1071,'ODESSA 1    ', 115.0000,1,   1,   9,   1,1.01925, -45.3874,1.10000,0.90000,1.10000,0.90000
  1072,'ODESSA 1    ',  18.0000,3,   1,   9,   1,1.01000, -43.3147,1.10000,0.90000,1.10000,0.90000
  1073,'ODESSA 1    ',  18.0000,2,   1,   9,   1,1.01000, -41.1350,1.10000,0.90000,1.10000,0.90000
  1074,'ODESSA 1    ',  18.0000,2,   1,   9,   1,1.01000, -41.3630,1.10000,0.90000,1.10000,0.90000
  1075,'ODESSA 1    ',  18.0000,2,   1,   9,   1,1.01000, -42.1676,1.10000,0.90000,1.10000,0.90000
  1076,'ODESSA 1    ',  18.0000,2,   1,   9,   1,1.01000, -43.7878,1.10000,0.90000,1.10000,0.90000
  1077,'ODESSA 1    ',  18.0000,2,   1,   9,   1,1.01000, -41.4880,1.10000,0.90000,1.10000,0.90000
  1078,'ODESSA 1    ',  18.0000,2,   1,   9,   1,1.01925, -45.3874,1.10000,0.90000,1.10000,0.90000
  1079,'ODESSA 1    ', 500.0000,2,   1,   9,   1,1.05333, -46.8913,1.10000,0.90000,1.10000,0.90000
  1080,'ODESSA 1    ',  18.0000,2,   1,   9,   1,1.01925, -45.3874,1.10000,0.90000,1.10000,0.90000
  1081,'ODESSA 1    ', 230.0000,2,   1,   9,   1,1.01234, -42.6672,1.10000,0.90000,1.10000,0.90000
  1082,'FORT STO    ', 115.0000,2,   1,   9,   1,1.01753, -41.8126,1.10000,0.90000,1.10000,0.90000
  1083,'FORT STO    ', 115.0000,1,   1,   9,   1,1.02603, -43.1967,1.10000,0.90000,1.10000,0.90000
  1084,'BIG SPRI    ', 115.0000,2,   1,   9,   1,1.03728, -42.8581,1.10000,0.90000,1.10000,0.90000
  1085,'KERMIT 0    ', 115.0000,1,   1,   9,   1,1.01563, -43.7630,1.10000,0.90000,1.10000,0.90000
  1086,'PECOS 0     ', 115.0000,1,   1,   9,   1,1.02715, -45.4032,1.10000,0.90000,1.10000,0.90000
  1087,'SHEFFIEL    ', 115.0000,1,   1,   9,   1,1.03010, -47.1203,1.10000,0.90000,1.10000,0.90000
  1088,'MCCAMEY     ', 115.0000,1,   1,   9,   1,0.99987, -43.4152,1.10000,0.90000,1.10000,0.90000
  1089,'LAMESA 0    ', 115.0000,1,   1,   9,   1,1.00583, -41.3787,1.10000,0.90000,1.10000,0.90000
  1090,'GOLDSMIT    ', 115.0000,1,   1,   9,   1,1.01999, -46.5825,1.10000,0.90000,1.10000,0.90000
  1091,'RALLS 2     ', 161.0000,1,   1,   9,   1,1.04274, -41.1648,1.10000,0.90000,1.10000,0.90000
  2001,'PARIS 3     ', 161.0000,1,   2,  11,   1,1.02553, -52.3093,1.10000,0.90000,1.10000,0.90000
  2002,'SAVOY 0     ', 500.0000,1,   2,  11,   1,1.03085, -50.5765,1.10000,0.90000,1.10000,0.90000
  2003,'SAVOY 1     ', 161.0000,1,   2,  11,   1,1.03078, -51.9276,1.10000,0.90000,1.10000,0.90000
  2004,'SAVOY 2     ',  13.8000,2,   2,  11,   1,1.02474, -49.6367,1.10000,0.90000,1.10000,0.90000
  2005,'SAVOY 3     ',  13.8000,2,   2,  11,   1,1.02376, -49.4749,1.10000,0.90000,1.10000,0.90000
  2006,'SAVOY 4     ',  13.8000,2,   2,  11,   1,1.02000, -48.8523,1.10000,0.90000,1.10000,0.90000
  2007,'HONEY GR    ', 161.0000,1,   2,  11,   1,1.02755, -51.8536,1.10000,0.90000,1.10000,0.90000
  2008,'MEMPHIS     ', 161.0000,1,   2,  10,   1,1.03304, -40.7004,1.10000,0.90000,1.10000,0.90000
  2009,'IOWA PAR    ', 161.0000,1,   2,  11,   1,1.03000, -47.3196,1.10000,0.90000,1.10000,0.90000
  2010,'VERNON 2    ', 161.0000,1,   2,  10,   1,1.03000, -45.1750,1.10000,0.90000,1.10000,0.90000
  2011,'PANHANDL    ', 500.0000,1,   2,  10,   1,1.05398, -38.0291,1.10000,0.90000,1.10000,0.90000
  2012,'PANHANDL    ', 161.0000,1,   2,  10,   1,1.04245, -36.8438,1.10000,0.90000,1.10000,0.90000
  2013,'PANHANDL    ',  18.0000,2,   2,  10,   1,1.04610, -37.1781,1.10000,0.90000,1.10000,0.90000
  2014,'CHILDRES    ', 161.0000,1,   2,  10,   1,1.03282, -41.8188,1.10000,0.90000,1.10000,0.90000
  2015,'FORESTBU    ', 161.0000,1,   2,  11,   1,1.02347, -54.0372,1.10000,0.90000,1.10000,0.90000
  2016,'SHERMAN     ', 161.0000,1,   2,  11,   1,1.02623, -54.5851,1.10000,0.90000,1.10000,0.90000
  2017,'PANHANDL    ', 500.0000,1,   2,  10,   1,1.04219, -37.7431,1.10000,0.90000,1.10000,0.90000
  2018,'PANHANDL    ', 161.0000,1,   2,  10,   1,1.04057, -37.1586,1.10000,0.90000,1.10000,0.90000
  2019,'PANHANDL    ',  20.0000,2,   2,  10,   1,1.04000, -36.8316,1.10000,0.90000,1.10000,0.90000
  2020,'WICHITA     ', 161.0000,1,   2,  11,   1,1.01692, -46.7502,1.10000,0.90000,1.10000,0.90000
  2021,'PARIS 2     ', 500.0000,1,   2,  11,   1,1.03235, -50.2092,1.10000,0.90000,1.10000,0.90000
  2022,'PARIS 2     ', 161.0000,1,   2,  11,   1,1.02948, -51.5191,1.10000,0.90000,1.10000,0.90000
  2023,'PARIS 2     ',  13.8000,2,   2,  11,   1,1.03235, -50.2092,1.10000,0.90000,1.10000,0.90000
  2024,'PARIS 2     ',  13.8000,2,   2,  11,   1,1.02809, -49.5511,1.10000,0.90000,1.10000,0.90000
  2025,'WICHITA     ', 161.0000,1,   2,  11,   1,1.01502, -46.4258,1.10000,0.90000,1.10000,0.90000
  2026,'WHEELER     ', 161.0000,1,   2,  10,   1,1.04399, -37.5452,1.10000,0.90000,1.10000,0.90000
  2027,'DEPORT 0    ', 161.0000,1,   2,  11,   1,1.02538, -52.6694,1.10000,0.90000,1.10000,0.90000
  2028,'WICHITA     ', 161.0000,1,   2,  11,   1,1.01817, -47.9462,1.10000,0.90000,1.10000,0.90000
  2029,'SILVERTO    ', 161.0000,1,   2,  10,   1,1.03853, -41.7316,1.10000,0.90000,1.10000,0.90000
  2030,'BONHAM 0    ', 161.0000,1,   2,  11,   1,1.01734, -53.9096,1.10000,0.90000,1.10000,0.90000
  2031,'MATADOR     ', 161.0000,1,   2,  10,   1,1.04234, -42.5818,1.10000,0.90000,1.10000,0.90000
  2032,'ARTHUR C    ', 161.0000,1,   2,  11,   1,1.02861, -51.5782,1.10000,0.90000,1.10000,0.90000
  2033,'LEONARD     ', 161.0000,1,   2,  11,   1,1.00951, -55.3653,1.10000,0.90000,1.10000,0.90000
  2034,'GORDONVI    ', 161.0000,1,   2,  11,   1,1.02787, -54.3430,1.10000,0.90000,1.10000,0.90000
  2035,'KNOX CIT    ', 161.0000,1,   2,  10,   1,1.03705, -43.6813,1.10000,0.90000,1.10000,0.90000
  2036,'WICHITA     ', 161.0000,1,   2,  11,   1,1.01800, -46.6509,1.10000,0.90000,1.10000,0.90000
  2037,'LINDSAY     ', 161.0000,1,   2,  11,   1,1.02866, -53.9306,1.10000,0.90000,1.10000,0.90000
  2038,'ECTOR 0     ', 161.0000,1,   2,  11,   1,1.02815, -52.5035,1.10000,0.90000,1.10000,0.90000
  2039,'SUNSET 0    ', 161.0000,1,   2,  11,   1,1.01393, -53.5445,1.10000,0.90000,1.10000,0.90000
  2040,'CLARKSVI    ', 161.0000,1,   2,  11,   1,1.02942, -51.9683,1.10000,0.90000,1.10000,0.90000
  2041,'PANHANDL    ', 161.0000,1,   2,  10,   1,1.04121, -35.6348,1.10000,0.90000,1.10000,0.90000
  2042,'PANHANDL    ',  18.0000,2,   2,  10,   1,1.03288, -34.2983,1.10000,0.90000,1.10000,0.90000
  2043,'SADLER 0    ', 161.0000,1,   2,  11,   1,1.02718, -54.4561,1.10000,0.90000,1.10000,0.90000
  2044,'WHITESBO    ', 161.0000,1,   2,  11,   1,1.02975, -53.5807,1.10000,0.90000,1.10000,0.90000
  2045,'SHEPPARD    ', 161.0000,1,   2,  11,   1,1.01679, -47.0382,1.10000,0.90000,1.10000,0.90000
  2046,'POTTSBOR    ', 161.0000,1,   2,  11,   1,1.02865, -54.1958,1.10000,0.90000,1.10000,0.90000
  2047,'BELLS 0     ', 161.0000,1,   2,  11,   1,1.03052, -52.3265,1.10000,0.90000,1.10000,0.90000
  2048,'CROSBYTO    ', 161.0000,1,   2,  10,   1,1.04286, -42.6295,1.10000,0.90000,1.10000,0.90000
  2049,'ELECTRA     ', 161.0000,1,   2,  10,   1,1.02775, -45.5554,1.10000,0.90000,1.10000,0.90000
  2050,'PATTONVI    ', 161.0000,1,   2,  11,   1,1.01094, -55.0326,1.10000,0.90000,1.10000,0.90000
  2051,'HENRIETT    ', 161.0000,1,   2,  11,   1,1.01727, -50.8417,1.10000,0.90000,1.10000,0.90000
  2052,'PANHANDL    ', 161.0000,1,   2,  10,   1,1.03345, -39.3836,1.10000,0.90000,1.10000,0.90000
  2053,'BOWIE 0     ', 161.0000,1,   2,  11,   1,1.01559, -52.3165,1.10000,0.90000,1.10000,0.90000
  2054,'WICHITA     ', 500.0000,1,   2,  11,   1,1.01817, -45.6969,1.10000,0.90000,1.10000,0.90000
  2055,'WICHITA     ', 161.0000,1,   2,  11,   1,1.01780, -46.2415,1.10000,0.90000,1.10000,0.90000
  2056,'WICHITA     ',  18.0000,2,   2,  11,   1,1.01817, -45.6969,1.10000,0.90000,1.10000,0.90000
  2057,'WICHITA     ',  18.0000,3,   2,  11,   1,0.99000, -43.8380,1.10000,0.90000,1.10000,0.90000
  2058,'WHITE DE    ', 161.0000,1,   2,  10,   1,1.04115, -35.3468,1.10000,0.90000,1.10000,0.90000
  2059,'WHITE DE    ',  13.8000,2,   2,  10,   1,1.03121, -33.1575,1.10000,0.90000,1.10000,0.90000
  2060,'ROXTON 0    ', 161.0000,1,   2,  11,   1,1.01274, -54.1333,1.10000,0.90000,1.10000,0.90000
  2061,'VERNON 1    ', 161.0000,1,   2,  10,   1,1.02684, -44.0190,1.10000,0.90000,1.10000,0.90000
  2062,'VERNON 1    ',  18.0000,2,   2,  10,   1,1.02000, -42.4407,1.10000,0.90000,1.10000,0.90000
  2063,'DENISON     ', 161.0000,1,   2,  11,   1,1.03000, -53.9390,1.10000,0.90000,1.10000,0.90000
  2064,'SUMNER 0    ', 161.0000,1,   2,  11,   1,1.02125, -52.7759,1.10000,0.90000,1.10000,0.90000
  2065,'GAINESVI    ', 161.0000,1,   2,  11,   1,1.03000, -54.4011,1.10000,0.90000,1.10000,0.90000
  2066,'ASPERMON    ', 161.0000,1,   2,  10,   1,1.03709, -42.6171,1.10000,0.90000,1.10000,0.90000
  2067,'WICHITA     ', 161.0000,1,   2,  11,   1,1.01328, -46.4553,1.10000,0.90000,1.10000,0.90000
  2068,'WINDTHOR    ', 161.0000,1,   2,  11,   1,1.01437, -45.5187,1.10000,0.90000,1.10000,0.90000
  2069,'HOWE 0      ', 161.0000,1,   2,  11,   1,1.03000, -54.1829,1.10000,0.90000,1.10000,0.90000
  2070,'ARCHER 2    ', 161.0000,1,   2,  11,   1,1.01571, -45.2958,1.10000,0.90000,1.10000,0.90000
  2071,'ARCHER 2    ',  18.0000,2,   2,  11,   1,1.00367, -43.7944,1.10000,0.90000,1.10000,0.90000
  2072,'COLLINSV    ', 161.0000,1,   2,  11,   1,1.03091, -53.3331,1.10000,0.90000,1.10000,0.90000
  2073,'JAYTON 0    ', 161.0000,1,   2,  10,   1,1.03639, -41.6177,1.10000,0.90000,1.10000,0.90000
  2074,'JAYTON 1    ', 115.0000,1,   2,  10,   1,1.02916, -41.2444,1.10000,0.90000,1.10000,0.90000
  2075,'JAYTON 2    ', 115.0000,1,   2,  10,   1,1.02916, -41.2444,1.10000,0.90000,1.10000,0.90000
  2076,'JAYTON 3    ',  24.0000,1,   2,  10,   1,1.03988, -41.2857,1.10000,0.90000,1.10000,0.90000
  2077,'MUENSTER    ', 161.0000,1,   2,  11,   1,1.02804, -53.1165,1.10000,0.90000,1.10000,0.90000
  2078,'MUENSTER    ',  13.8000,2,   2,  11,   1,1.02000, -51.7484,1.10000,0.90000,1.10000,0.90000
  2079,'PADUCAH     ', 161.0000,1,   2,  10,   1,1.03694, -44.2495,1.10000,0.90000,1.10000,0.90000
  2080,'NOCONA 0    ', 161.0000,1,   2,  11,   1,1.01910, -52.1198,1.10000,0.90000,1.10000,0.90000
  2081,'DODD CIT    ', 161.0000,1,   2,  11,   1,1.02328, -53.5286,1.10000,0.90000,1.10000,0.90000
  2082,'WICHITA     ', 161.0000,1,   2,  11,   1,1.01960, -46.9548,1.10000,0.90000,1.10000,0.90000
  2083,'WICHITA     ',  20.0000,2,   2,  11,   1,1.01960, -46.9548,1.10000,0.90000,1.10000,0.90000
  2084,'WICHITA     ',  20.0000,2,   2,  11,   1,1.01960, -46.9548,1.10000,0.90000,1.10000,0.90000
  2085,'WICHITA     ',  20.0000,2,   2,  11,   1,1.01960, -46.9548,1.10000,0.90000,1.10000,0.90000
  2086,'MONTAGUE    ', 161.0000,1,   2,  11,   1,1.01623, -53.0134,1.10000,0.90000,1.10000,0.90000
  2087,'SPUR 0      ', 161.0000,1,   2,  10,   1,1.03968, -42.2486,1.10000,0.90000,1.10000,0.90000
  2088,'ARCHER 1    ', 161.0000,1,   2,  11,   1,1.01454, -45.3742,1.10000,0.90000,1.10000,0.90000
  2089,'ARCHER 1    ',  24.0000,1,   2,  11,   1,1.00272, -43.9026,1.10000,0.90000,1.10000,0.90000
  2090,'ANNONA 0    ', 161.0000,1,   2,  11,   1,1.02386, -53.2355,1.10000,0.90000,1.10000,0.90000
  2091,'SEYMOUR     ', 161.0000,1,   2,  10,   1,1.03364, -44.7958,1.10000,0.90000,1.10000,0.90000
  2092,'DENISON     ', 161.0000,1,   2,  11,   1,1.02992, -53.1441,1.10000,0.90000,1.10000,0.90000
  2093,'PANHANDL    ', 161.0000,1,   2,  10,   1,1.04075, -36.5356,1.10000,0.90000,1.10000,0.90000
  2094,'PANHANDL    ',  13.8000,1,   2,  10,   1,1.03937, -36.3302,1.10000,0.90000,1.10000,0.90000
  2095,'PANHANDL    ',  13.8000,1,   2,  10,   1,1.03543, -35.7227,1.10000,0.90000,1.10000,0.90000
  2096,'RALLS 1     ', 500.0000,1,   2,  10,   1,1.03000, -37.4078,1.10000,0.90000,1.10000,0.90000
  2097,'RALLS 1     ', 230.0000,1,   2,  10,   1,1.03185, -37.6182,1.10000,0.90000,1.10000,0.90000
  2098,'RALLS 1     ', 161.0000,1,   2,  10,   1,1.04268, -40.5976,1.10000,0.90000,1.10000,0.90000
  2099,'RALLS 1     ',  18.0000,1,   2,  10,   1,1.02953, -37.3252,1.10000,0.90000,1.10000,0.90000
  2100,'RALLS 1     ',  18.0000,2,   2,  10,   1,1.02116, -35.8821,1.10000,0.90000,1.10000,0.90000
  2101,'SHERMAN     ', 500.0000,1,   2,  11,   1,1.03271, -51.1566,1.10000,0.90000,1.10000,0.90000
  2102,'SHERMAN     ', 161.0000,1,   2,  11,   1,1.03266, -51.9392,1.10000,0.90000,1.10000,0.90000
  2103,'SHERMAN     ',  20.0000,2,   2,  11,   1,1.03271, -51.1566,1.10000,0.90000,1.10000,0.90000
  2104,'SHERMAN     ',  20.0000,2,   2,  11,   1,1.03271, -51.1566,1.10000,0.90000,1.10000,0.90000
  2105,'SHERMAN     ',  20.0000,2,   2,  11,   1,1.03271, -51.1566,1.10000,0.90000,1.10000,0.90000
  2106,'WHITEWRI    ', 161.0000,1,   2,  11,   1,1.01223, -55.0455,1.10000,0.90000,1.10000,0.90000
  2107,'SHERMAN     ', 161.0000,1,   2,  11,   1,1.03064, -52.3056,1.10000,0.90000,1.10000,0.90000
  2108,'ROCHESTE    ', 161.0000,1,   2,  10,   1,1.03547, -48.3700,1.10000,0.90000,1.10000,0.90000
  2109,'BURKBURN    ', 161.0000,1,   2,  11,   1,1.02366, -47.7618,1.10000,0.90000,1.10000,0.90000
  2110,'MUENSTER    ', 161.0000,1,   2,  11,   1,1.03000, -53.4941,1.10000,0.90000,1.10000,0.90000
  2111,'ARCHER C    ', 161.0000,1,   2,  11,   1,1.03247, -48.8515,1.10000,0.90000,1.10000,0.90000
  2112,'PETROLIA    ', 161.0000,1,   2,  11,   1,1.01774, -48.8567,1.10000,0.90000,1.10000,0.90000
  2113,'PARIS 1     ', 500.0000,1,   2,  11,   1,1.03244, -50.1173,1.10000,0.90000,1.10000,0.90000
  2114,'PARIS 1     ', 161.0000,1,   2,  11,   1,1.03173, -50.7837,1.10000,0.90000,1.10000,0.90000
  2115,'PARIS 1     ',  13.8000,2,   2,  11,   1,1.02496, -48.9557,1.10000,0.90000,1.10000,0.90000
  2116,'PARIS 1     ',  13.8000,2,   2,  11,   1,1.02854, -49.5154,1.10000,0.90000,1.10000,0.90000
  2117,'PARIS 1     ',  13.8000,2,   2,  11,   1,1.02348, -48.7754,1.10000,0.90000,1.10000,0.90000
  2118,'PARIS 1     ',  13.8000,2,   2,  11,   1,1.02256, -48.6280,1.10000,0.90000,1.10000,0.90000
  2119,'PARIS 1     ',  13.8000,2,   2,  11,   1,1.02768, -49.3840,1.10000,0.90000,1.10000,0.90000
  2120,'PARIS 1     ',  13.8000,2,   2,  11,   1,1.02301, -48.6857,1.10000,0.90000,1.10000,0.90000
  2121,'BAGWELL     ', 161.0000,1,   2,  11,   1,1.02807, -52.4289,1.10000,0.90000,1.10000,0.90000
  2122,'TELEPHON    ', 161.0000,1,   2,  11,   1,1.02387, -52.5226,1.10000,0.90000,1.10000,0.90000
  2123,'PANHANDL    ', 161.0000,2,   2,  10,   1,1.04039, -35.2600,1.10000,0.90000,1.10000,0.90000
  2124,'VAN ALST    ', 161.0000,1,   2,  11,   1,1.00708, -55.7657,1.10000,0.90000,1.10000,0.90000
  2125,'TIOGA 0     ', 161.0000,1,   2,  11,   1,1.02545, -53.3706,1.10000,0.90000,1.10000,0.90000
  2126,'VALLEY V    ', 161.0000,1,   2,  11,   1,1.02685, -54.4991,1.10000,0.90000,1.10000,0.90000
  2127,'MIAMI 0     ', 500.0000,2,   2,  10,   1,1.05503, -38.8451,1.10000,0.90000,1.10000,0.90000
  2128,'MIAMI 1     ', 161.0000,1,   2,  10,   1,1.04818, -38.1888,1.10000,0.90000,1.10000,0.90000
  2129,'TRENTON     ', 161.0000,1,   2,  11,   1,1.01452, -54.9247,1.10000,0.90000,1.10000,0.90000
  2130,'HASKELL     ', 161.0000,1,   2,  10,   1,1.03458, -48.1886,1.10000,0.90000,1.10000,0.90000
  2131,'HASKELL     ', 115.0000,1,   2,  10,   1,1.03092, -47.8741,1.10000,0.90000,1.10000,0.90000
  2132,'HASKELL     ', 115.0000,1,   2,  10,   1,1.03000, -48.4015,1.10000,0.90000,1.10000,0.90000
  2133,'SAINT JO    ', 161.0000,1,   2,  11,   1,1.02640, -52.9424,1.10000,0.90000,1.10000,0.90000
  3001,'KERRVILL    ', 230.0000,1,   3,  28,   1,1.02271, -64.8419,1.10000,0.90000,1.10000,0.90000
  3002,'KERRVILL    ', 115.0000,1,   3,  28,   1,1.01866, -66.8688,1.10000,0.90000,1.10000,0.90000
  3003,'SWEETWAT    ', 115.0000,1,   3,  27,   1,1.02014, -41.0654,1.10000,0.90000,1.10000,0.90000
  3004,'SWEETWAT    ',  18.0000,1,   3,  27,   1,1.01505, -40.4501,1.10000,0.90000,1.10000,0.90000
  3005,'LEAKEY 0    ', 115.0000,1,   3,  28,   1,1.01440, -74.6808,1.10000,0.90000,1.10000,0.90000
  3006,'HAMLIN 0    ', 115.0000,1,   3,  27,   1,1.02395, -44.2006,1.10000,0.90000,1.10000,0.90000
  3007,'MERKEL 3    ', 115.0000,1,   3,  27,   1,1.02806, -44.0684,1.10000,0.90000,1.10000,0.90000
  3008,'COLEMAN     ', 115.0000,1,   3,  27,   1,1.02389, -51.8500,1.10000,0.90000,1.10000,0.90000
  3009,'SONORA 0    ', 115.0000,1,   3,  28,   1,1.02890, -52.2676,1.10000,0.90000,1.10000,0.90000
  3010,'CAMP WOO    ', 115.0000,1,   3,  28,   1,1.01632, -73.7238,1.10000,0.90000,1.10000,0.90000
  3011,'LLANO 0     ', 115.0000,1,   3,  28,   1,1.00964, -70.5639,1.10000,0.90000,1.10000,0.90000
  3012,'WILLOW C    ', 115.0000,1,   3,  28,   1,0.99932, -71.6762,1.10000,0.90000,1.10000,0.90000
  3013,'ABILENE     ', 115.0000,1,   3,  27,   1,1.03000, -46.5153,1.10000,0.90000,1.10000,0.90000
  3014,'KINGSLAN    ', 115.0000,1,   3,  28,   1,1.02662, -61.1780,1.10000,0.90000,1.10000,0.90000
  3015,'ROSCOE 6    ', 115.0000,1,   3,  27,   1,1.01888, -39.5380,1.10000,0.90000,1.10000,0.90000
  3016,'BLACKWEL    ', 115.0000,1,   3,  27,   1,1.01998, -43.1892,1.10000,0.90000,1.10000,0.90000
  3017,'BLACKWEL    ',  18.0000,2,   3,  27,   1,1.01000, -41.1927,1.10000,0.90000,1.10000,0.90000
  3018,'CHRISTOV    ', 230.0000,1,   3,  27,   1,1.03131, -49.8273,1.10000,0.90000,1.10000,0.90000
  3019,'CHRISTOV    ', 115.0000,1,   3,  27,   1,1.03000, -50.8062,1.10000,0.90000,1.10000,0.90000
  3020,'CHRISTOV    ',  13.8000,2,   3,  27,   1,1.03000, -48.2416,1.10000,0.90000,1.10000,0.90000
  3021,'LUEDERS     ', 115.0000,1,   3,  27,   1,1.02887, -47.0471,1.10000,0.90000,1.10000,0.90000
  3022,'COLORADO    ', 115.0000,1,   3,  27,   1,1.01607, -39.2570,1.10000,0.90000,1.10000,0.90000
  3023,'STAMFORD    ', 115.0000,1,   3,  27,   1,1.03000, -43.9039,1.10000,0.90000,1.10000,0.90000
  3024,'ELDORADO    ', 115.0000,1,   3,  28,   1,1.02829, -51.5260,1.10000,0.90000,1.10000,0.90000
  3025,'SAN SABA    ', 115.0000,1,   3,  28,   1,1.02550, -55.6530,1.10000,0.90000,1.10000,0.90000
  3026,'ABILENE     ', 230.0000,1,   3,  27,   1,1.03991, -46.0970,1.10000,0.90000,1.10000,0.90000
  3027,'ABILENE     ', 115.0000,1,   3,  27,   1,1.02990, -47.8429,1.10000,0.90000,1.10000,0.90000
  3028,'ABILENE     ',  18.0000,2,   3,  27,   1,1.04000, -45.0410,1.10000,0.90000,1.10000,0.90000
  3029,'LOMETA 0    ', 115.0000,1,   3,  28,   1,1.03341, -57.4576,1.10000,0.90000,1.10000,0.90000
  3030,'SAN ANGE    ', 115.0000,1,   3,  27,   1,1.03000, -55.3145,1.10000,0.90000,1.10000,0.90000
  3031,'TUSCOLA     ', 115.0000,1,   3,  27,   1,1.01971, -45.0967,1.10000,0.90000,1.10000,0.90000
  3032,'ABILENE     ', 115.0000,1,   3,  27,   1,1.01735, -45.6955,1.10000,0.90000,1.10000,0.90000
  3033,'SNYDER 1    ', 115.0000,1,   3,  27,   1,1.02035, -38.4659,1.10000,0.90000,1.10000,0.90000
  3034,'SNYDER 1    ',  22.0000,2,   3,  27,   1,1.03000, -35.8278,1.10000,0.90000,1.10000,0.90000
  3035,'CHEROKEE    ', 115.0000,1,   3,  28,   1,1.02629, -55.7368,1.10000,0.90000,1.10000,0.90000
  3036,'RICHLAND    ', 115.0000,1,   3,  28,   1,1.02509, -54.3493,1.10000,0.90000,1.10000,0.90000
  3037,'ROSCOE 2    ', 230.0000,1,   3,  27,   1,1.03842, -41.3435,1.10000,0.90000,1.10000,0.90000
  3038,'ROSCOE 2    ', 115.0000,1,   3,  27,   1,1.02310, -39.7022,1.10000,0.90000,1.10000,0.90000
  3039,'ROSCOE 2    ',  13.8000,2,   3,  27,   1,1.04000, -40.3588,1.10000,0.90000,1.10000,0.90000
  3040,'BALLINGE    ', 115.0000,1,   3,  27,   1,1.01622, -51.3969,1.10000,0.90000,1.10000,0.90000
  3041,'SILVER 0    ', 230.0000,1,   3,  27,   1,1.04081, -42.9672,1.10000,0.90000,1.10000,0.90000
  3042,'SILVER 1    ', 115.0000,1,   3,  27,   1,1.02656, -41.0929,1.10000,0.90000,1.10000,0.90000
  3043,'SILVER 2    ',  13.8000,2,   3,  27,   1,1.04081, -42.9672,1.10000,0.90000,1.10000,0.90000
  3044,'SILVER 3    ',  13.8000,2,   3,  27,   1,1.04081, -42.9672,1.10000,0.90000,1.10000,0.90000
  3045,'SILVER 4    ',  13.8000,2,   3,  27,   1,1.04000, -38.7798,1.10000,0.90000,1.10000,0.90000
  3046,'ROSCOE 5    ', 230.0000,1,   3,  27,   1,1.04172, -44.8949,1.10000,0.90000,1.10000,0.90000
  3047,'ROSCOE 5    ', 115.0000,1,   3,  27,   1,1.03000, -41.1301,1.10000,0.90000,1.10000,0.90000
  3048,'ROSCOE 5    ', 500.0000,2,   3,  27,   1,1.05053, -47.1168,1.10000,0.90000,1.10000,0.90000
  3049,'ANSON 0     ', 115.0000,1,   3,  27,   1,1.02617, -45.1476,1.10000,0.90000,1.10000,0.90000
  3050,'DEL RIO     ', 230.0000,1,   3,  28,   1,1.03000, -57.0671,1.10000,0.90000,1.10000,0.90000
  3051,'DEL RIO     ', 115.0000,1,   3,  28,   1,1.02130, -58.7500,1.10000,0.90000,1.10000,0.90000
  3052,'HUNT 0      ', 115.0000,1,   3,  28,   1,1.01972, -71.5682,1.10000,0.90000,1.10000,0.90000
  3053,'WINGATE     ', 230.0000,1,   3,  27,   1,1.03876, -43.3369,1.10000,0.90000,1.10000,0.90000
  3054,'WINGATE     ', 115.0000,1,   3,  27,   1,1.02964, -44.4676,1.10000,0.90000,1.10000,0.90000
  3055,'WINGATE     ',  13.8000,2,   3,  27,   1,1.04000, -42.2325,1.10000,0.90000,1.10000,0.90000
  3056,'WINGATE     ',  13.8000,2,   3,  27,   1,1.04000, -41.2499,1.10000,0.90000,1.10000,0.90000
  3057,'WINGATE     ',  13.8000,2,   3,  27,   1,1.04000, -41.3105,1.10000,0.90000,1.10000,0.90000
  3058,'STERLING    ', 230.0000,1,   3,  27,   1,1.03859, -42.7027,1.10000,0.90000,1.10000,0.90000
  3059,'STERLING    ', 115.0000,1,   3,  27,   1,1.02740, -41.3378,1.10000,0.90000,1.10000,0.90000
  3060,'STERLING    ',  18.0000,2,   3,  27,   1,1.04000, -39.8110,1.10000,0.90000,1.10000,0.90000
  3061,'STERLING    ',  18.0000,2,   3,  27,   1,1.04000, -40.6384,1.10000,0.90000,1.10000,0.90000
  3062,'STERLING    ',  18.0000,2,   3,  27,   1,1.04000, -41.6608,1.10000,0.90000,1.10000,0.90000
  3063,'STERLING    ',  18.0000,2,   3,  27,   1,1.04000, -41.2199,1.10000,0.90000,1.10000,0.90000
  3064,'ROSCOE 4    ', 115.0000,1,   3,  27,   1,1.02501, -40.7220,1.10000,0.90000,1.10000,0.90000
  3065,'ROSCOE 4    ',  18.0000,1,   3,  27,   1,1.01263, -38.9705,1.10000,0.90000,1.10000,0.90000
  3066,'BRADY 0     ', 115.0000,1,   3,  28,   1,1.02519, -55.5900,1.10000,0.90000,1.10000,0.90000
  3067,'TRENT 1     ', 115.0000,1,   3,  27,   1,1.02922, -42.0464,1.10000,0.90000,1.10000,0.90000
  3068,'TRENT 1     ',  20.0000,2,   3,  27,   1,1.04000, -40.9420,1.10000,0.90000,1.10000,0.90000
  3069,'OVALO 0     ', 115.0000,1,   3,  27,   1,1.02009, -47.1963,1.10000,0.90000,1.10000,0.90000
  3070,'NOLAN 0     ', 115.0000,1,   3,  27,   1,1.02101, -42.9111,1.10000,0.90000,1.10000,0.90000
  3071,'NOLAN 1     ',  24.0000,2,   3,  27,   1,1.00672, -41.1269,1.10000,0.90000,1.10000,0.90000
  3072,'MILES 0     ', 115.0000,1,   3,  27,   1,1.02492, -54.2590,1.10000,0.90000,1.10000,0.90000
  3073,'BRACKETT    ', 115.0000,1,   3,  28,   1,1.00942, -74.4530,1.10000,0.90000,1.10000,0.90000
  3074,'BRACKETT    ',  13.8000,1,   3,  28,   1,1.00126, -73.4799,1.10000,0.90000,1.10000,0.90000
  3075,'MASON 0     ', 115.0000,1,   3,  28,   1,1.02558, -55.0043,1.10000,0.90000,1.10000,0.90000
  3076,'BRACKETT    ', 115.0000,1,   3,  28,   1,1.01188, -74.3319,1.10000,0.90000,1.10000,0.90000
  3077,'ABILENE     ', 115.0000,1,   3,  27,   1,1.01850, -46.2527,1.10000,0.90000,1.10000,0.90000