0,   100.00, 33, 0, 1, 60.00     / PSS(R)E-33.12   THU, JUL 09 2020   9:36
THIS IS A SYNTHETIC POWER SYSTEM MODEL THAT DOES NOT REPRESE
DATA RESEARCH PROJECT AND CONTAINS NO CEII.
  1004,'O DONNEL    ', 230.0000,2,   1,   9,   1,1.02817, -38.0177,1.10000,0.90000,1.10000,0.90000
  1021,'BIG SPRI    ',  13.8000,2,   1,   9,   1,1.00861, -39.0468,1.10000,0.90000,1.10000,0.90000
  1023,'O DONNEL    ',  13.8000,2,   1,   9,   1,1.01000, -33.7591,1.10000,0.90000,1.10000,0.90000
  1026,'BIG SPRI    ',  13.8000,2,   1,   9,   1,1.00451, -37.9547,1.10000,0.90000,1.10000,0.90000
  1033,'MCCAMEY     ', 230.0000,2,   1,   9,   1,1.00797, -43.9484,1.10000,0.90000,1.10000,0.90000
  1039,'FORT STO    ',  22.0000,2,   1,   9,   1,1.00060, -40.1997,1.10000,0.90000,1.10000,0.90000
  1042,'FORSAN 1    ',  13.8000,2,   1,   9,   1,1.00000, -36.5445,1.10000,0.90000,1.10000,0.90000
  1048,'MONAHANS    ',  18.0000,2,   1,   9,   1,1.00000, -37.6781,1.10000,0.90000,1.10000,0.90000
  1049,'MONAHANS    ',  18.0000,2,   1,   9,   1,1.00000, -34.8178,1.10000,0.90000,1.10000,0.90000
  1053,'MONAHANS    ', 230.0000,2,   1,   9,   1,1.00970, -41.6413,1.10000,0.90000,1.10000,0.90000
  1057,'LENORAH     ',  18.0000,2,   1,   9,   1,1.00714, -40.0397,1.10000,0.90000,1.10000,0.90000
  1063,'BIG SPRI    ',  13.8000,2,   1,   9,   1,1.02396, -38.1886,1.10000,0.90000,1.10000,0.90000
  1066,'BIG SPRI    ',  13.8000,2,   1,   9,   1,1.00000, -36.7500,1.10000,0.90000,1.10000,0.90000
  1070,'IRAAN 1     ',  13.8000,2,   1,   9,   1,1.04000, -41.7144,1.10000,0.90000,1.10000,0.90000
  1072,'ODESSA 1    ',  18.0000,3,   1,   9,   1,1.01000, -43.3147,1.10000,0.90000,1.10000,0.90000
  1073,'ODESSA 1    ',  18.0000,2,   1,   9,   1,1.01000, -41.1352,1.10000,0.90000,1.10000,0.90000
  1074,'ODESSA 1    ',  18.0000,2,   1,   9,   1,1.01000, -41.3632,1.10000,0.90000,1.10000,0.90000
  1075,'ODESSA 1    ',  18.0000,2,   1,   9,   1,1.01000, -42.1678,1.10000,0.90000,1.10000,0.90000
  1076,'ODESSA 1    ',  18.0000,2,   1,   9,   1,1.01000, -43.7880,1.10000,0.90000,1.10000,0.90000
  1077,'ODESSA 1    ',  18.0000,2,   1,   9,   1,1.01000, -41.4882,1.10000,0.90000,1.10000,0.90000
  1081,'ODESSA 1    ', 230.0000,2,   1,   9,   1,1.01234, -42.6674,1.10000,0.90000,1.10000,0.90000
  1082,'FORT STO    ', 115.0000,2,   1,   9,   1,1.01753, -41.8128,1.10000,0.90000,1.10000,0.90000
  1084,'BIG SPRI    ', 115.0000,2,   1,   9,   1,1.03728, -42.8582,1.10000,0.90000,1.10000,0.90000
  2004,'SAVOY 2     ',  13.8000,2,   2,  11,   1,1.02474, -49.6368,1.10000,0.90000,1.10000,0.90000
  2005,'SAVOY 3     ',  13.8000,2,   2,  11,   1,1.02376, -49.4750,1.10000,0.90000,1.10000,0.90000
  2006,'SAVOY 4     ',  13.8000,2,   2,  11,   1,1.02000, -48.8525,1.10000,0.90000,1.10000,0.90000
  2013,'PANHANDL    ',  18.0000,2,   2,  10,   1,1.04609, -37.1783,1.10000,0.90000,1.10000,0.90000
  2019,'PANHANDL    ',  20.0000,2,   2,  10,   1,1.04000, -36.8317,1.10000,0.90000,1.10000,0.90000
  2024,'PARIS 2     ',  13.8000,2,   2,  11,   1,1.02809, -49.5512,1.10000,0.90000,1.10000,0.90000
  2042,'PANHANDL    ',  18.0000,2,   2,  10,   1,1.03288, -34.2984,1.10000,0.90000,1.10000,0.90000
  2057,'WICHITA     ',  18.0000,3,   2,  11,   1,0.99000, -43.8380,1.10000,0.90000,1.10000,0.90000
  2059,'WHITE DE    ',  13.8000,2,   2,  10,   1,1.03121, -33.1576,1.10000,0.90000,1.10000,0.90000
  2062,'VERNON 1    ',  18.0000,2,   2,  10,   1,1.02000, -42.4408,1.10000,0.90000,1.10000,0.90000
  2071,'ARCHER 2    ',  18.0000,2,   2,  11,   1,1.00367, -43.7945,1.10000,0.90000,1.10000,0.90000
  2078,'MUENSTER    ',  13.8000,2,   2,  11,   1,1.02000, -51.7485,1.10000,0.90000,1.10000,0.90000
  2100,'RALLS 1     ',  18.0000,2,   2,  10,   1,1.02116, -35.8822,1.10000,0.90000,1.10000,0.90000
  2115,'PARIS 1     ',  13.8000,2,   2,  11,   1,1.02496, -48.9558,1.10000,0.90000,1.10000,0.90000
  2116,'PARIS 1     ',  13.8000,2,   2,  11,   1,1.02854, -49.5155,1.10000,0.90000,1.10000,0.90000
  2117,'PARIS 1     ',  13.8000,2,   2,  11,   1,1.02348, -48.7755,1.10000,0.90000,1.10000,0.90000
  2118,'PARIS 1     ',  13.8000,2,   2,  11,   1,1.02256, -48.6282,1.10000,0.90000,1.10000,0.90000
  2119,'PARIS 1     ',  13.8000,2,   2,  11,   1,1.02768, -49.3841,1.10000,0.90000,1.10000,0.90000
  2120,'PARIS 1     ',  13.8000,2,   2,  11,   1,1.02301, -48.6859,1.10000,0.90000,1.10000,0.90000
  2123,'PANHANDL    ', 161.0000,2,   2,  10,   1,1.04039, -35.2601,1.10000,0.90000,1.10000,0.90000
  2127,'MIAMI 0     ', 500.0000,2,   2,  10,   1,1.05503, -38.8452,1.10000,0.90000,1.10000,0.90000
  3017,'BLACKWEL    ',  18.0000,2,   3,  27,   1,1.01000, -41.1928,1.10000,0.90000,1.10000,0.90000
  3020,'CHRISTOV    ',  13.8000,2,   3,  27,   1,1.03000, -48.2418,1.10000,0.90000,1.10000,0.90000
  3028,'ABILENE     ',  18.0000,2,   3,  27,   1,1.04000, -45.0412,1.10000,0.90000,1.10000,0.90000
  3034,'SNYDER 1    ',  22.0000,2,   3,  27,   1,1.03000, -35.8279,1.10000,0.90000,1.10000,0.90000
  3039,'ROSCOE 2    ',  13.8000,2,   3,  27,   1,1.04000, -40.3590,1.10000,0.90000,1.10000,0.90000
  3045,'SILVER 4    ',  13.8000,2,   3,  27,   1,1.04000, -38.7799,1.10000,0.90000,1.10000,0.90000
  3048,'ROSCOE 5    ', 500.0000,2,   3,  27,   1,1.05053, -47.1169,1.10000,0.90000,1.10000,0.90000
  3055,'WINGATE     ',  13.8000,2,   3,  27,   1,1.04000, -42.2327,1.10000,0.90000,1.10000,0.90000
  3056,'WINGATE     ',  13.8000,2,   3,  27,   1,1.04000, -41.2500,1.10000,0.90000,1.10000,0.90000
  3057,'WINGATE     ',  13.8000,2,   3,  27,   1,1.04000, -41.3106,1.10000,0.90000,1.10000,0.90000
  3060,'STERLING    ',  18.0000,2,   3,  27,   1,1.04000, -39.8112,1.10000,0.90000,1.10000,0.90000
  3061,'STERLING    ',  18.0000,2,   3,  27,   1,1.04000, -40.6386,1.10000,0.90000,1.10000,0.90000
  3062,'STERLING    ',  18.0000,2,   3,  27,   1,1.04000, -41.6610,1.10000,0.90000,1.10000,0.90000
  3063,'STERLING    ',  18.0000,2,   3,  27,   1,1.04000, -41.2201,1.10000,0.90000,1.10000,0.90000
  3068,'TRENT 1     ',  20.0000,2,   3,  27,   1,1.04000, -40.9421,1.10000,0.90000,1.10000,0.90000
  3071,'NOLAN 1     ',  24.0000,2,   3,  27,   1,1.00672, -41.1271,1.10000,0.90000,1.10000,0.90000
  3081,'HERMLEIG    ',  20.0000,2,   3,  27,   1,1.04000, -39.0069,1.10000,0.90000,1.10000,0.90000
  3084,'MERKEL 1    ',  13.8000,2,   3,  27,   1,1.00133, -39.7208,1.10000,0.90000,1.10000,0.90000
  3092,'ABILENE     ',  13.8000,2,   3,  27,   1,1.04000, -42.7530,1.10000,0.90000,1.10000,0.90000
  3095,'MERKEL 2    ',  18.0000,2,   3,  27,   1,1.04000, -41.3782,1.10000,0.90000,1.10000,0.90000
  3098,'FLUVANNA    ',  13.8000,2,   3,  27,   1,1.04000, -34.6968,1.10000,0.90000,1.10000,0.90000
  3106,'BUCHANAN    ',  13.2000,3,   3,  28,   1,1.00000, -51.0582,1.10000,0.90000,1.10000,0.90000
  3118,'SYNDER 2    ',  13.8000,2,   3,  27,   1,1.00219, -36.8870,1.10000,0.90000,1.10000,0.90000
  3122,'ROSCOE 1    ',  18.0000,2,   3,  27,   1,1.00000, -36.0349,1.10000,0.90000,1.10000,0.90000
  3127,'SWEETWAT    ', 115.0000,2,   3,  27,   1,1.01855, -39.9882,1.10000,0.90000,1.10000,0.90000
  3129,'ROSCOE 3    ', 115.0000,2,   3,  27,   1,1.02357, -39.6355,1.10000,0.90000,1.10000,0.90000
  3131,'TUSOCOLA    ', 115.0000,2,   3,  27,   1,1.02000, -43.4249,1.10000,0.90000,1.10000,0.90000
  4010,'SARITA 3    ',  20.0000,2,   4,  21,   1,1.03000, -88.1767,1.10000,0.90000,1.10000,0.90000
  4026,'CHRISTIN    ',  13.8000,2,   4,  20,   1,1.03000, -61.9697,1.10000,0.90000,1.10000,0.90000
  4028,'FANNIN 0    ', 230.0000,1,   4,  21,   1,1.01181, -57.9444,1.10000,0.90000,1.10000,0.90000
  4029,'FANNIN 1    ', 115.0000,1,   4,  21,   1,1.01260, -59.6167,1.10000,0.90000,1.10000,0.90000
  4030,'FANNIN 2    ',  13.8000,3,   4,  21,   1,1.01000, -56.4150,1.10000,0.90000,1.10000,0.90000
  4047,'FALCON H    ',  13.8000,2,   4,  19,   1,1.02000, -85.5851,1.10000,0.90000,1.10000,0.90000
  4050,'SEBASTIA    ',  13.8000,2,   4,  19,   1,1.00987, -98.7793,1.10000,0.90000,1.10000,0.90000
  4058,'GREGORY     ',  13.8000,2,   4,  21,   1,1.03000, -78.7424,1.10000,0.90000,1.10000,0.90000
  4059,'GREGORY     ',  13.8000,2,   4,  21,   1,1.03000, -78.9596,1.10000,0.90000,1.10000,0.90000
  4060,'GREGORY     ',  13.8000,2,   4,  21,   1,1.03000, -78.1355,1.10000,0.90000,1.10000,0.90000
  4061,'GREGORY     ',  13.8000,2,   4,  21,   1,1.03000, -78.4985,1.10000,0.90000,1.10000,0.90000
  4062,'GREGORY     ',  13.8000,2,   4,  21,   1,1.03000, -78.0991,1.10000,0.90000,1.10000,0.90000
  4063,'GREGORY     ',  13.8000,2,   4,  21,   1,1.03000, -78.4663,1.10000,0.90000,1.10000,0.90000
  4082,'CORPUS C    ',  13.8000,2,   4,  21,   1,1.04000, -84.1545,1.10000,0.90000,1.10000,0.90000
  4083,'CORPUS C    ',  13.8000,2,   4,  21,   1,1.04000, -84.3096,1.10000,0.90000,1.10000,0.90000
  4084,'CORPUS C    ',  13.8000,2,   4,  21,   1,1.04000, -85.1315,1.10000,0.90000,1.10000,0.90000
  4085,'CORPUS C    ',  13.8000,2,   4,  21,   1,1.04000, -83.7528,1.10000,0.90000,1.10000,0.90000
  4105,'TAFT 2 1    ',  18.0000,2,   4,  21,   1,1.01000, -82.6767,1.10000,0.90000,1.10000,0.90000
  4115,'LAREDO 1    ',  13.8000,2,   4,  20,   1,1.04000, -80.5395,1.10000,0.90000,1.10000,0.90000
  4116,'LAREDO 1    ',  13.8000,2,   4,  20,   1,1.04000, -80.4864,1.10000,0.90000,1.10000,0.90000
  4142,'SARITA 1    ',  13.8000,2,   4,  21,   1,1.04000, -86.9933,1.10000,0.90000,1.10000,0.90000
  4153,'ARMSTRON    ',  18.0000,2,   4,  21,   1,1.04000, -89.2469,1.10000,0.90000,1.10000,0.90000
  4160,'CORPUS C    ',  13.8000,2,   4,  21,   1,1.03000, -81.6985,1.10000,0.90000,1.10000,0.90000
  4161,'CORPUS C    ',  13.8000,2,   4,  21,   1,1.03000, -80.5639,1.10000,0.90000,1.10000,0.90000
  4162,'CORPUS C    ',  13.8000,2,   4,  21,   1,1.03000, -80.5906,1.10000,0.90000,1.10000,0.90000
  4166,'SARITA 2    ',  13.8000,2,   4,  21,   1,1.01358, -87.5877,1.10000,0.90000,1.10000,0.90000
  4173,'REFUGIO     ', 115.0000,1,   4,  21,   1,0.98890, -68.4355,1.10000,0.90000,1.10000,0.90000
  4177,'BRUNI 1     ',  13.8000,2,   4,  20,   1,1.04000, -81.8348,1.10000,0.90000,1.10000,0.90000
  4181,'TAFT 1 0    ', 230.0000,2,   4,  21,   1,1.01606, -78.6746,1.10000,0.90000,1.10000,0.90000
  4183,'SAN PERL    ', 230.0000,2,   4,  19,   1,1.02536, -91.6278,1.10000,0.90000,1.10000,0.90000
  4192,'BROWNSVI    ', 230.0000,2,   4,  19,   1,1.02000, -94.1900,1.10000,0.90000,1.10000,0.90000
  4194,'SEBASTIA    ', 115.0000,2,   4,  19,   1,1.02000,-100.4884,1.10000,0.90000,1.10000,0.90000
  5020,'JACKSBOR    ',  13.8000,2,   5,  12,   1,1.02917, -46.8546,1.10000,0.90000,1.10000,0.90000
  5037,'DALLAS 1    ',  13.2000,2,   5,  16,   1,1.02494, -49.6707,1.10000,0.90000,1.10000,0.90000
  5038,'DALLAS 1    ',  13.2000,2,   5,  16,   1,1.02475, -49.6237,1.10000,0.90000,1.10000,0.90000
  5039,'DALLAS 1    ',  13.2000,2,   5,  16,   1,1.02728, -50.4748,1.10000,0.90000,1.10000,0.90000
  5040,'DALLAS 1    ',  13.2000,2,   5,  16,   1,1.02357, -49.1496,1.10000,0.90000,1.10000,0.90000
  5041,'DALLAS 1    ',  13.2000,2,   5,  16,   1,1.02536, -49.7595,1.10000,0.90000,1.10000,0.90000
  5042,'DALLAS 1    ',  13.2000,2,   5,  16,   1,1.02439, -49.5145,1.10000,0.90000,1.10000,0.90000
  5057,'GRAHAM 2    ',  13.8000,2,   5,  12,   1,1.02868, -46.1305,1.10000,0.90000,1.10000,0.90000
  5058,'GRAHAM 3    ',  13.8000,2,   5,  12,   1,1.02644, -45.5250,1.10000,0.90000,1.10000,0.90000
  5067,'ARLINGTO    ',  13.8000,2,   5,  17,   1,1.03000, -49.3901,1.10000,0.90000,1.10000,0.90000
  5068,'ARLINGTO    ',  13.8000,2,   5,  17,   1,1.03000, -49.3154,1.10000,0.90000,1.10000,0.90000
  5069,'ARLINGTO    ',  13.8000,2,   5,  17,   1,1.03000, -49.2163,1.10000,0.90000,1.10000,0.90000
  5089,'CLIFTON     ',  13.8000,2,   5,  18,   1,1.01000, -54.1947,1.10000,0.90000,1.10000,0.90000
  5166,'DENTON 1    ',  13.8000,2,   5,  17,   1,1.04000, -50.5825,1.10000,0.90000,1.10000,0.90000
  5198,'BRYSON 1    ',  18.0000,2,   5,  12,   1,1.03046, -47.7084,1.10000,0.90000,1.10000,0.90000
  5206,'POOLVILL    ',  13.8000,2,   5,  12,   1,1.02726, -47.1934,1.10000,0.90000,1.10000,0.90000
  5207,'POOLVILL    ',  13.8000,2,   5,  12,   1,1.02976, -47.9126,1.10000,0.90000,1.10000,0.90000
  5208,'POOLVILL    ',  13.8000,2,   5,  12,   1,1.02899, -47.6976,1.10000,0.90000,1.10000,0.90000
  5238,'OLNEY 1     ',  18.0000,2,   5,  12,   1,1.03089, -46.4583,1.10000,0.90000,1.10000,0.90000
  5243,'GOLDTHWA    ',  13.8000,2,   5,  18,   1,1.03741, -52.5936,1.10000,0.90000,1.10000,0.90000
  5262,'GLEN ROS    ',  13.8000,2,   5,  18,   1,1.02091, -43.5279,1.10000,0.90000,1.10000,0.90000
  5263,'GLEN ROS    ',  13.8000,2,   5,  18,   1,1.02357, -44.7401,1.10000,0.90000,1.10000,0.90000
  5281,'TEMPLE 1    ',  13.8000,2,   5,  13,   1,1.02346, -53.2158,1.10000,0.90000,1.10000,0.90000
  5282,'TEMPLE 1    ',  13.8000,2,   5,  13,   1,1.02438, -53.3497,1.10000,0.90000,1.10000,0.90000
  5283,'TEMPLE 1    ',  13.8000,2,   5,  13,   1,1.02561, -53.5210,1.10000,0.90000,1.10000,0.90000
  5298,'MCKINNEY    ',  13.8000,2,   5,  16,   1,1.04000, -51.3896,1.10000,0.90000,1.10000,0.90000
  5299,'MCKINNEY    ',  13.8000,2,   5,  16,   1,1.04000, -51.1793,1.10000,0.90000,1.10000,0.90000
  5300,'MCKINNEY    ',  13.8000,2,   5,  16,   1,1.04000, -51.2489,1.10000,0.90000,1.10000,0.90000
  5302,'MCKINNEY    ',  13.8000,2,   5,  16,   1,1.04000, -50.2835,1.10000,0.90000,1.10000,0.90000
  5303,'MCKINNEY    ',  13.8000,2,   5,  16,   1,1.04000, -50.6143,1.10000,0.90000,1.10000,0.90000
  5319,'GRANBURY    ',  13.2000,2,   5,  18,   1,1.02357, -47.6464,1.10000,0.90000,1.10000,0.90000
  5320,'GRANBURY    ',  13.2000,2,   5,  18,   1,1.02314, -47.5571,1.10000,0.90000,1.10000,0.90000
  5321,'GRANBURY    ',  13.2000,2,   5,  18,   1,1.02383, -47.6814,1.10000,0.90000,1.10000,0.90000
  5324,'DALLAS 2    ',  13.8000,2,   5,  17,   1,1.04000, -49.1481,1.10000,0.90000,1.10000,0.90000
  5325,'DALLAS 2    ',  13.8000,2,   5,  17,   1,1.04000, -49.1446,1.10000,0.90000,1.10000,0.90000
  5326,'DALLAS 2    ',  13.8000,2,   5,  17,   1,1.04000, -50.6298,1.10000,0.90000,1.10000,0.90000
  5343,'LEWISVIL    ',  13.8000,2,   5,  17,   1,1.04000, -51.7564,1.10000,0.90000,1.10000,0.90000
  5360,'RIESEL 1    ',  13.8000,3,   5,  13,   1,1.01000, -50.1820,1.10000,0.90000,1.10000,0.90000
  5364,'BRIDGEPO    ',  13.8000,2,   5,  12,   1,1.02877, -48.1868,1.10000,0.90000,1.10000,0.90000
  5365,'BRIDGEPO    ',  13.8000,2,   5,  12,   1,1.02633, -47.4968,1.10000,0.90000,1.10000,0.90000
  5366,'BRIDGEPO    ',  13.8000,2,   5,  12,   1,1.02577, -47.3128,1.10000,0.90000,1.10000,0.90000
  5367,'BRIDGEPO    ',  13.8000,2,   5,  12,   1,1.02586, -47.3581,1.10000,0.90000,1.10000,0.90000
  5368,'BRIDGEPO    ',  13.8000,2,   5,  12,   1,1.02762, -47.8497,1.10000,0.90000,1.10000,0.90000
  5369,'BRIDGEPO    ',  13.8000,2,   5,  12,   1,1.02549, -47.2328,1.10000,0.90000,1.10000,0.90000
  5382,'ENNIS 2     ',  13.8000,2,   5,  14,   1,1.04000, -50.5178,1.10000,0.90000,1.10000,0.90000
  5383,'ENNIS 3     ',  13.8000,2,   5,  14,   1,1.04000, -50.3881,1.10000,0.90000,1.10000,0.90000
  5399,'ALBANY 1    ',  13.8000,2,   5,  15,   1,1.04155, -46.2614,1.10000,0.90000,1.10000,0.90000
  5415,'PALO PIN    ',  13.8000,2,   5,  12,   1,1.03273, -47.8370,1.10000,0.90000,1.10000,0.90000
  5416,'PALO PIN    ',  13.8000,2,   5,  12,   1,1.03265, -47.8306,1.10000,0.90000,1.10000,0.90000
  5417,'PALO PIN    ',  13.8000,2,   5,  12,   1,1.03313, -47.9064,1.10000,0.90000,1.10000,0.90000
  5418,'PALO PIN    ',  13.8000,2,   5,  12,   1,1.03347, -47.9363,1.10000,0.90000,1.10000,0.90000
  5419,'PALO PIN    ',  13.8000,2,   5,  12,   1,1.03485, -48.1554,1.10000,0.90000,1.10000,0.90000
  5444,'MIDLOTHI    ', 500.0000,2,   5,  17,   1,1.02537, -50.0740,1.10000,0.90000,1.10000,0.90000
  6006,'BASTROP     ',  13.8000,2,   6,  25,   1,1.04000, -54.2549,1.10000,0.90000,1.10000,0.90000
  6007,'BASTROP     ',  13.8000,2,   6,  25,   1,1.04000, -53.6257,1.10000,0.90000,1.10000,0.90000
  6008,'BASTROP     ',  13.8000,2,   6,  25,   1,1.04000, -54.2192,1.10000,0.90000,1.10000,0.90000
  6009,'BASTROP     ',  13.8000,2,   6,  25,   1,1.04000, -53.9122,1.10000,0.90000,1.10000,0.90000
  6010,'BASTROP     ',  13.8000,2,   6,  25,   1,1.04000, -54.1444,1.10000,0.90000,1.10000,0.90000
  6030,'YOAKUM 0    ', 230.0000,1,   6,  24,   1,1.01784, -58.6823,1.10000,0.90000,1.10000,0.90000
  6042,'AUSTIN 3    ',  13.8000,2,   6,  23,   1,1.04000, -54.6301,1.10000,0.90000,1.10000,0.90000
  6062,'BRENHAM     ', 500.0000,1,   6,  25,   1,1.02814, -56.9120,1.10000,0.90000,1.10000,0.90000
  6069,'MARION 1    ',  18.0000,2,   6,  22,   1,1.03000, -57.3354,1.10000,0.90000,1.10000,0.90000
  6070,'MARION 1    ',  18.0000,2,   6,  22,   1,1.03000, -56.8284,1.10000,0.90000,1.10000,0.90000
  6071,'MARION 1    ',  18.0000,2,   6,  22,   1,1.03000, -57.4096,1.10000,0.90000,1.10000,0.90000
  6072,'MARION 1    ',  18.0000,2,   6,  22,   1,1.03000, -56.9828,1.10000,0.90000,1.10000,0.90000
  6073,'MARION 1    ',  18.0000,2,   6,  22,   1,1.03000, -57.2180,1.10000,0.90000,1.10000,0.90000
  6074,'MARION 1    ',  18.0000,2,   6,  22,   1,1.03000, -57.2215,1.10000,0.90000,1.10000,0.90000
  6075,'LA GRANG    ', 500.0000,1,   6,  25,   1,1.02556, -55.1750,1.10000,0.90000,1.10000,0.90000
  6078,'LA GRANG    ',  22.0000,2,   6,  25,   1,1.01778, -54.0891,1.10000,0.90000,1.10000,0.90000
  6079,'LA GRANG    ',  22.0000,2,   6,  25,   1,1.02203, -54.6709,1.10000,0.90000,1.10000,0.90000
  6080,'LA GRANG    ',  22.0000,2,   6,  25,   1,1.02064, -54.4874,1.10000,0.90000,1.10000,0.90000
  6106,'WINCHEST    ',  13.8000,2,   6,  25,   1,1.03445, -55.2365,1.10000,0.90000,1.10000,0.90000
  6110,'ROCKDALE    ',  13.8000,2,   6,  25,   1,1.04000, -53.3172,1.10000,0.90000,1.10000,0.90000
  6111,'ROCKDALE    ',  13.8000,2,   6,  25,   1,1.04000, -53.2060,1.10000,0.90000,1.10000,0.90000
  6122,'HALLETTS    ', 115.0000,1,   6,  24,   1,0.98612, -63.5810,1.10000,0.90000,1.10000,0.90000
  6145,'SAN ANTO    ',  13.8000,2,   6,  22,   1,1.03000, -54.6058,1.10000,0.90000,1.10000,0.90000
  6146,'SAN ANTO    ',  13.8000,2,   6,  22,   1,1.03000, -54.7203,1.10000,0.90000,1.10000,0.90000
  6147,'SAN ANTO    ',  13.8000,3,   6,  22,   1,1.03000, -55.7878,1.10000,0.90000,1.10000,0.90000
  6148,'SAN ANTO    ',  13.8000,2,   6,  22,   1,1.03000, -56.6351,1.10000,0.90000,1.10000,0.90000
  6149,'SAN ANTO    ',  13.8000,2,   6,  22,   1,1.03000, -57.1497,1.10000,0.90000,1.10000,0.90000
  6161,'SEGUIN 1    ', 500.0000,1,   6,  22,   1,1.03085, -57.1661,1.10000,0.90000,1.10000,0.90000
  6164,'SEGUIN 1    ',  13.8000,2,   6,  22,   1,1.03000, -56.5367,1.10000,0.90000,1.10000,0.90000
  6165,'SEGUIN 1    ',  13.8000,2,   6,  22,   1,1.03000, -56.4645,1.10000,0.90000,1.10000,0.90000
  6166,'SEGUIN 1    ',  13.8000,2,   6,  22,   1,1.03000, -56.8704,1.10000,0.90000,1.10000,0.90000
  6167,'SEGUIN 1    ',  13.8000,2,   6,  22,   1,1.03000, -56.6147,1.10000,0.90000,1.10000,0.90000
  6173,'CUERO 2     ', 115.0000,1,   6,  24,   1,1.01927, -60.2076,1.10000,0.90000,1.10000,0.90000
  6188,'COLUMBUS    ', 230.0000,1,   6,  25,   1,1.01527, -57.0683,1.10000,0.90000,1.10000,0.90000
  6195,'INDUSTRY    ', 115.0000,1,   6,  25,   1,0.99666, -62.5400,1.10000,0.90000,1.10000,0.90000
  6213,'MARBLE F    ',  13.8000,2,   6,  23,   1,1.04145, -53.9833,1.10000,0.90000,1.10000,0.90000
  6214,'MARBLE F    ',  13.8000,2,   6,  23,   1,1.04000, -52.8070,1.10000,0.90000,1.10000,0.90000
  6215,'MARBLE F    ',  13.8000,2,   6,  23,   1,1.04210, -54.6368,1.10000,0.90000,1.10000,0.90000
  6216,'MARBLE F    ',  13.8000,2,   6,  23,   1,1.04125, -53.8461,1.10000,0.90000,1.10000,0.90000
  6239,'ELMENDOR    ', 500.0000,1,   6,  22,   1,1.03572, -57.6654,1.10000,0.90000,1.10000,0.90000
  6243,'ELMENDOR    ',  13.8000,2,   6,  22,   1,1.04000, -56.5764,1.10000,0.90000,1.10000,0.90000
  6244,'ELMENDOR    ',  13.8000,2,   6,  22,   1,1.04000, -55.8003,1.10000,0.90000,1.10000,0.90000
  6245,'ELMENDOR    ',  13.8000,2,   6,  22,   1,1.04000, -56.0904,1.10000,0.90000,1.10000,0.90000
  6246,'ELMENDOR    ',  13.8000,2,   6,  22,   1,1.04000, -56.8575,1.10000,0.90000,1.10000,0.90000
  6247,'ELMENDOR    ',  13.8000,2,   6,  22,   1,1.04000, -57.1788,1.10000,0.90000,1.10000,0.90000
  6248,'ELMENDOR    ',  13.8000,2,   6,  22,   1,1.04000, -56.6786,1.10000,0.90000,1.10000,0.90000
  6249,'ELMENDOR    ',  13.8000,2,   6,  22,   1,1.04000, -56.2379,1.10000,0.90000,1.10000,0.90000
  6257,'AUSTIN 2    ',  13.8000,2,   6,  23,   1,1.03387, -55.5631,1.10000,0.90000,1.10000,0.90000
  6258,'AUSTIN 2    ',  13.8000,2,   6,  23,   1,1.03179, -55.2353,1.10000,0.90000,1.10000,0.90000
  6260,'AUSTIN 2    ',  13.8000,2,   6,  23,   1,1.03346, -55.4905,1.10000,0.90000,1.10000,0.90000
  6263,'KENEDY 0    ', 230.0000,1,   6,  24,   1,1.02076, -62.4898,1.10000,0.90000,1.10000,0.90000
  6295,'CEDAR CR    ',  13.8000,2,   6,  23,   1,1.03503, -55.3085,1.10000,0.90000,1.10000,0.90000
  6296,'CEDAR CR    ',  13.8000,2,   6,  23,   1,1.03530, -55.3519,1.10000,0.90000,1.10000,0.90000
  6297,'CEDAR CR    ',  13.8000,2,   6,  23,   1,1.03241, -54.9125,1.10000,0.90000,1.10000,0.90000
  6302,'NEW BRAU    ',  22.0000,2,   6,  22,   1,1.02394, -56.7187,1.10000,0.90000,1.10000,0.90000
  6303,'NEW BRAU    ',  22.0000,2,   6,  22,   1,1.02775, -57.2988,1.10000,0.90000,1.10000,0.90000
  6304,'NEW BRAU    ',  22.0000,2,   6,  22,   1,1.02489, -56.8594,1.10000,0.90000,1.10000,0.90000
  6305,'NEW BRAU    ',  22.0000,2,   6,  22,   1,1.02393, -56.7071,1.10000,0.90000,1.10000,0.90000
  6341,'CHAPPELL    ', 115.0000,1,   6,  25,   1,1.01619, -63.4598,1.10000,0.90000,1.10000,0.90000
  6349,'AUSTIN 1    ', 500.0000,2,   6,  23,   1,1.04000, -56.0617,1.10000,0.90000,1.10000,0.90000
  7001,'INEZ 0      ', 115.0000,1,   7,   6,   1,1.00636, -56.6955,1.10000,0.90000,1.10000,0.90000
  7002,'PASADENA    ', 500.0000,1,   7,   4,   1,1.03629, -54.8943,1.10000,0.90000,1.10000,0.90000
  7003,'PASADENA    ', 230.0000,1,   7,   4,   1,1.02962, -57.4413,1.10000,0.90000,1.10000,0.90000
  7004,'PASADENA    ', 115.0000,1,   7,   4,   1,1.02664, -60.2009,1.10000,0.90000,1.10000,0.90000
  7005,'PASADENA    ',  13.8000,2,   7,   4,   1,1.04000, -53.6445,1.10000,0.90000,1.10000,0.90000
  7006,'PASADENA    ',  13.8000,2,   7,   4,   1,1.04000, -54.1839,1.10000,0.90000,1.10000,0.90000
  7007,'PASADENA    ',  13.8000,2,   7,   4,   1,1.04000, -53.8244,1.10000,0.90000,1.10000,0.90000
  7008,'PASADENA    ',  13.8000,2,   7,   4,   1,1.04000, -53.7698,1.10000,0.90000,1.10000,0.90000
  7009,'PASADENA    ',  13.8000,2,   7,   4,   1,1.04000, -53.6420,1.10000,0.90000,1.10000,0.90000
  7010,'PRAIRIE     ', 115.0000,1,   7,   5,   1,1.00670, -64.2831,1.10000,0.90000,1.10000,0.90000
  7011,'CONROE 1    ', 115.0000,1,   7,   5,   1,1.02614, -63.9459,1.10000,0.90000,1.10000,0.90000
  7012,'SIMONTON    ', 115.0000,1,   7,   3,   1,1.00121, -62.1614,1.10000,0.90000,1.10000,0.90000
  7013,'HOUSTON     ', 115.0000,1,   7,   5,   1,1.01296, -63.5862,1.10000,0.90000,1.10000,0.90000
  7014,'HOUSTON     ', 115.0000,1,   7,   4,   1,1.01271, -62.6205,1.10000,0.90000,1.10000,0.90000
  7015,'HOUSTON     ',  18.0000,2,   7,   4,   1,1.01271, -62.6205,1.10000,0.90000,1.10000,0.90000
  7016,'HOUSTON     ', 115.0000,1,   7,   4,   1,1.02073, -60.8943,1.10000,0.90000,1.10000,0.90000
  7017,'HOUSTON     ', 115.0000,1,   7,   3,   1,1.01674, -63.1054,1.10000,0.90000,1.10000,0.90000
  7018,'NURSERY     ', 500.0000,1,   7,   6,   1,1.02398, -53.1327,1.10000,0.90000,1.10000,0.90000
  7019,'NURSERY     ', 230.0000,1,   7,   6,   1,1.01791, -55.9752,1.10000,0.90000,1.10000,0.90000
  7020,'NURSERY     ', 115.0000,1,   7,   6,   1,1.01936, -57.7856,1.10000,0.90000,1.10000,0.90000
  7021,'NURSERY     ',  18.0000,2,   7,   6,   1,1.02398, -53.1327,1.10000,0.90000,1.10000,0.90000
  7022,'NURSERY     ',  18.0000,2,   7,   6,   1,1.02398, -53.1327,1.10000,0.90000,1.10000,0.90000
  7023,'NURSERY     ',  18.0000,2,   7,   6,   1,1.02398, -53.1327,1.10000,0.90000,1.10000,0.90000
  7024,'NURSERY     ',  18.0000,2,   7,   6,   1,1.02398, -53.1327,1.10000,0.90000,1.10000,0.90000
  7025,'NURSERY     ',  18.0000,2,   7,   6,   1,1.02398, -53.1327,1.10000,0.90000,1.10000,0.90000
  7026,'BACLIFF     ', 115.0000,1,   7,   4,   1,1.02262, -60.7400,1.10000,0.90000,1.10000,0.90000
  7027,'SPRING 1    ', 115.0000,1,   7,   5,   1,1.01530, -63.0717,1.10000,0.90000,1.10000,0.90000
  7028,'HOUSTON     ', 115.0000,1,   7,   3,   1,1.02000, -62.7969,1.10000,0.90000,1.10000,0.90000
  7029,'PORT LAV    ', 230.0000,1,   7,   6,   1,1.01087, -54.6825,1.10000,0.90000,1.10000,0.90000
  7030,'PORT LAV    ', 115.0000,1,   7,   6,   1,1.00692, -60.7880,1.10000,0.90000,1.10000,0.90000
  7031,'PORT LAV    ',  13.8000,1,   7,   6,   1,1.01277, -53.4748,1.10000,0.90000,1.10000,0.90000
  7032,'PORT LAV    ',  13.8000,1,   7,   6,   1,1.01140, -54.3708,1.10000,0.90000,1.10000,0.90000
  7033,'PORT LAV    ',  13.8000,1,   7,   6,   1,1.01140, -54.3708,1.10000,0.90000,1.10000,0.90000
  7034,'PORT LAV    ',  13.8000,1,   7,   6,   1,1.01118, -54.4996,1.10000,0.90000,1.10000,0.90000
  7035,'CONROE 5    ', 230.0000,1,   7,   5,   1,1.02788, -60.1077,1.10000,0.90000,1.10000,0.90000
  7036,'CONROE 5    ', 115.0000,1,   7,   5,   1,1.02186, -61.6554,1.10000,0.90000,1.10000,0.90000
  7037,'SUGAR LA    ', 500.0000,1,   7,   3,   1,1.03162, -57.7296,1.10000,0.90000,1.10000,0.90000
  7038,'SUGAR LA    ', 230.0000,1,   7,   3,   1,1.02278, -58.7934,1.10000,0.90000,1.10000,0.90000
  7039,'SUGAR LA    ', 115.0000,1,   7,   3,   1,1.01792, -61.6106,1.10000,0.90000,1.10000,0.90000
  7040,'DAYTON 0    ', 230.0000,1,   7,   4,   1,1.02906, -57.9132,1.10000,0.90000,1.10000,0.90000
  7041,'DAYTON 1    ', 115.0000,1,   7,   4,   1,1.02275, -60.3255,1.10000,0.90000,1.10000,0.90000
  7042,'VICTORIA    ', 500.0000,1,   7,   6,   1,1.02190, -52.5650,1.10000,0.90000,1.10000,0.90000
  7043,'VICTORIA    ', 230.0000,1,   7,   6,   1,1.01942, -54.8210,1.10000,0.90000,1.10000,0.90000
  7044,'VICTORIA    ', 115.0000,1,   7,   6,   1,1.00876, -56.2764,1.10000,0.90000,1.10000,0.90000
  7045,'VICTORIA    ',  20.0000,2,   7,   6,   1,1.03000, -51.9713,1.10000,0.90000,1.10000,0.90000
  7046,'VICTORIA    ',  20.0000,2,   7,   6,   1,1.03000, -52.2945,1.10000,0.90000,1.10000,0.90000
  7047,'KATY 1 0    ', 500.0000,1,   7,   3,   1,1.03093, -57.9312,1.10000,0.90000,1.10000,0.90000
  7048,'KATY 1 1    ', 230.0000,1,   7,   3,   1,1.02442, -59.2697,1.10000,0.90000,1.10000,0.90000
  7049,'KATY 1 2    ', 115.0000,1,   7,   3,   1,1.02163, -62.1526,1.10000,0.90000,1.10000,0.90000
  7050,'MAGNOLIA    ', 115.0000,1,   7,   5,   1,1.01233, -63.8206,1.10000,0.90000,1.10000,0.90000
  7051,'HOUSTON     ', 115.0000,1,   7,   3,   1,1.01683, -63.1371,1.10000,0.90000,1.10000,0.90000
  7052,'MISSOURI    ', 115.0000,1,   7,   3,   1,1.01475, -62.1420,1.10000,0.90000,1.10000,0.90000
  7053,'RICHMOND    ', 115.0000,1,   7,   3,   1,1.02170, -59.3049,1.10000,0.90000,1.10000,0.90000
  7054,'HOUSTON     ', 115.0000,1,   7,   4,   1,1.00930, -63.2610,1.10000,0.90000,1.10000,0.90000
  7055,'HOUSTON     ', 115.0000,1,   7,   3,   1,1.01711, -61.8286,1.10000,0.90000,1.10000,0.90000
  7056,'SPRING 8    ', 230.0000,1,   7,   5,   1,1.02436, -60.3101,1.10000,0.90000,1.10000,0.90000
  7057,'SPRING 8    ', 115.0000,1,   7,   5,   1,1.01502, -62.8685,1.10000,0.90000,1.10000,0.90000
  7058,'POINT CO    ', 500.0000,1,   7,   6,   1,1.01010, -49.5569,1.10000,0.90000,1.10000,0.90000
  7059,'POINT CO    ', 230.0000,1,   7,   6,   1,1.01235, -51.1293,1.10000,0.90000,1.10000,0.90000
  7060,'POINT CO    ', 115.0000,1,   7,   6,   1,1.02001, -53.6115,1.10000,0.90000,1.10000,0.90000
  7061,'POINT CO    ',  13.8000,2,   7,   6,   1,1.00707, -49.0792,1.10000,0.90000,1.10000,0.90000
  7062,'POINT CO    ',  13.8000,2,   7,   6,   1,1.00734, -49.1201,1.10000,0.90000,1.10000,0.90000
  7063,'POINT CO    ',  13.8000,2,   7,   6,   1,1.00714, -49.0848,1.10000,0.90000,1.10000,0.90000
  7064,'POINT CO    ',  13.8000,2,   7,   6,   1,1.00780, -49.1965,1.10000,0.90000,1.10000,0.90000
  7065,'POINT CO    ',  13.8000,2,   7,   6,   1,1.00761, -49.1598,1.10000,0.90000,1.10000,0.90000
  7066,'POINT CO    ',  13.8000,2,   7,   6,   1,1.00741, -49.1301,1.10000,0.90000,1.10000,0.90000
  7067,'HOUSTON     ', 115.0000,1,   7,   3,   1,1.00475, -64.1855,1.10000,0.90000,1.10000,0.90000
  7068,'EL CAMPO    ', 230.0000,1,   7,   1,   1,1.00953, -54.5258,1.10000,0.90000,1.10000,0.90000
  7069,'EL CAMPO    ', 115.0000,1,   7,   1,   1,1.00621, -57.6488,1.10000,0.90000,1.10000,0.90000
  7070,'HOUSTON     ', 115.0000,1,   7,   4,   1,1.01405, -61.6074,1.10000,0.90000,1.10000,0.90000
  7071,'PORT O C    ', 115.0000,1,   7,   6,   1,0.99101, -52.7838,1.10000,0.90000,1.10000,0.90000
  7072,'DICKINSO    ', 115.0000,1,   7,   4,   1,1.02039, -60.4536,1.10000,0.90000,1.10000,0.90000
  7073,'GALVESTO    ', 230.0000,1,   7,   2,   1,1.02695, -58.1432,1.10000,0.90000,1.10000,0.90000
  7074,'GALVESTO    ', 115.0000,1,   7,   2,   1,1.02380, -59.7518,1.10000,0.90000,1.10000,0.90000
  7075,'HOUSTON     ', 115.0000,1,   7,   4,   1,1.03000, -60.9113,1.10000,0.90000,1.10000,0.90000
  7076,'BAYTOWN     ', 500.0000,1,   7,   4,   1,1.03807, -54.4851,1.10000,0.90000,1.10000,0.90000
  7077,'BAYTOWN     ', 230.0000,1,   7,   4,   1,1.03491, -55.9565,1.10000,0.90000,1.10000,0.90000
  7078,'BAYTOWN     ', 115.0000,1,   7,   4,   1,1.02753, -58.9623,1.10000,0.90000,1.10000,0.90000
  7079,'BAYTOWN     ',  13.8000,2,   7,   4,   1,1.04000, -53.0229,1.10000,0.90000,1.10000,0.90000
  7080,'BAYTOWN     ',  13.8000,2,   7,   4,   1,1.04000, -52.6107,1.10000,0.90000,1.10000,0.90000
  7081,'BAYTOWN     ',  13.8000,2,   7,   4,   1,1.04000, -52.5938,1.10000,0.90000,1.10000,0.90000
  7082,'BAYTOWN     ',  13.8000,2,   7,   4,   1,1.04000, -52.9846,1.10000,0.90000,1.10000,0.90000
  7083,'LEAGUE C    ', 230.0000,1,   7,   4,   1,1.02719, -57.5883,1.10000,0.90000,1.10000,0.90000
  7084,'LEAGUE C    ', 115.0000,1,   7,   4,   1,1.02150, -59.6504,1.10000,0.90000,1.10000,0.90000
  7085,'LIVERPOO    ', 115.0000,1,   7,   2,   1,1.01213, -60.0285,1.10000,0.90000,1.10000,0.90000