0,   100.00, 30, 0, 1,  60.00     / PSS(R)E 30 RAW created by rawd30  THU, JUL 09 2020   9:20
THIS IS A SYNTHETIC POWER SYSTEM MODEL THAT DOES NOT REPRESE
DATA RESEARCH PROJECT AND CONTAINS NO CEII.
  1004,'O DONNEL    ', 230.0000,2,    -1.487,    27.025,   1,   9,1.02817, -38.0177,   1
  1021,'BIG SPRI    ',  13.8000,2,     1.184,    19.793,   1,   9,1.00861, -39.0468,   1
  1023,'O DONNEL    ',  13.8000,2,    -0.475,     6.303,   1,   9,1.01000, -33.7591,   1
  1026,'BIG SPRI    ',  13.8000,2,    -0.303,    11.522,   1,   9,1.00451, -37.9547,   1
  1033,'MCCAMEY     ', 230.0000,2,     1.656,   119.776,   1,   9,1.00797, -43.9484,   1
  1039,'FORT STO    ',  22.0000,2,     1.884,    17.697,   1,   9,1.00060, -40.1997,   1
  1042,'FORSAN 1    ',  13.8000,2,     0.770,    21.525,   1,   9,1.00000, -36.5445,   1
  1048,'MONAHANS    ',  18.0000,2,    -0.019,    31.573,   1,   9,1.00000, -37.6781,   1
  1049,'MONAHANS    ',  18.0000,2,     0.474,    17.632,   1,   9,1.00000, -34.8178,   1
  1053,'MONAHANS    ', 230.0000,2,     0.570,    26.587,   1,   9,1.00970, -41.6413,   1
  1057,'LENORAH     ',  18.0000,2,     3.419,    39.002,   1,   9,1.00714, -40.0397,   1
  1063,'BIG SPRI    ',  13.8000,2,     0.384,    21.494,   1,   9,1.02396, -38.1886,   1
  1066,'BIG SPRI    ',  13.8000,2,     0.503,    19.803,   1,   9,1.00000, -36.7500,   1
  1070,'IRAAN 1     ',  13.8000,2,     1.371,    24.010,   1,   9,1.04000, -41.7144,   1
  1072,'ODESSA 1    ',  18.0000,3,     0.020,    22.043,   1,   9,1.01000, -43.3147,   1
  1073,'ODESSA 1    ',  18.0000,2,    -0.534,    14.445,   1,   9,1.01000, -41.1352,   1
  1074,'ODESSA 1    ',  18.0000,2,     0.251,    15.147,   1,   9,1.01000, -41.3632,   1
  1075,'ODESSA 1    ',  18.0000,2,     0.479,    18.928,   1,   9,1.01000, -42.1678,   1
  1076,'ODESSA 1    ',  18.0000,2,     1.306,    38.214,   1,   9,1.01000, -43.7880,   1
  1077,'ODESSA 1    ',  18.0000,2,     0.149,    15.653,   1,   9,1.01000, -41.4882,   1
  1081,'ODESSA 1    ', 230.0000,2,     0.651,    51.917,   1,   9,1.01234, -42.6674,   1
  1082,'FORT STO    ', 115.0000,2,    -4.828,    48.110,   1,   9,1.01753, -41.8128,   1
  1084,'BIG SPRI    ', 115.0000,2,    -4.590,    64.598,   1,   9,1.03728, -42.8582,   1
  2004,'SAVOY 2     ',  13.8000,2,     0.421,    79.062,   2,  11,1.02474, -49.6368,   1
  2005,'SAVOY 3     ',  13.8000,2,     0.073,    67.618,   2,  11,1.02376, -49.4750,   1
  2006,'SAVOY 4     ',  13.8000,2,     0.298,    43.264,   2,  11,1.02000, -48.8525,   1
  2013,'PANHANDL    ',  18.0000,2,     0.983,    14.332,   2,  10,1.04609, -37.1783,   1
  2019,'PANHANDL    ',  20.0000,2,    -0.748,   -25.103,   2,  10,1.04000, -36.8317,   1
  2024,'PARIS 2     ',  13.8000,2,     0.667,    46.262,   2,  11,1.02809, -49.5512,   1
  2042,'PANHANDL    ',  18.0000,2,     0.292,     3.963,   2,  10,1.03288, -34.2984,   1
  2057,'WICHITA     ',  18.0000,3,    10.270,   135.442,   2,  11,0.99000, -43.8380,   1
  2059,'WHITE DE    ',  13.8000,2,     0.124,     1.645,   2,  10,1.03121, -33.1576,   1
  2062,'VERNON 1    ',  18.0000,2,     0.783,    44.814,   2,  10,1.02000, -42.4408,   1
  2071,'ARCHER 2    ',  18.0000,2,    -0.062,    17.756,   2,  11,1.00367, -43.7945,   1
  2078,'MUENSTER    ',  13.8000,2,     1.890,    45.117,   2,  11,1.02000, -51.7485,   1
  2100,'RALLS 1     ',  18.0000,2,     0.216,    -5.113,   2,  10,1.02116, -35.8822,   1
  2115,'PARIS 1     ',  13.8000,2,     0.258,    28.190,   2,  11,1.02496, -48.9558,   1
  2116,'PARIS 1     ',  13.8000,2,     0.849,    54.088,   2,  11,1.02854, -49.5155,   1
  2117,'PARIS 1     ',  13.8000,2,     0.475,    24.345,   2,  11,1.02348, -48.7755,   1
  2118,'PARIS 1     ',  13.8000,2,     0.356,    21.984,   2,  11,1.02256, -48.6282,   1
  2119,'PARIS 1     ',  13.8000,2,     0.677,    44.438,   2,  11,1.02768, -49.3841,   1
  2120,'PARIS 1     ',  13.8000,2,     0.329,    22.875,   2,  11,1.02301, -48.6859,   1
  2123,'PANHANDL    ', 161.0000,2,    -1.720,    20.220,   2,  10,1.04039, -35.2601,   1
  2127,'MIAMI 0     ', 500.0000,2,   -17.566,   400.855,   2,  10,1.05503, -38.8452,   1
  3017,'BLACKWEL    ',  18.0000,2,     1.855,    15.951,   3,  27,1.01000, -41.1928,   1
  3020,'CHRISTOV    ',  13.8000,2,     5.820,    71.793,   3,  27,1.03000, -48.2418,   1
  3028,'ABILENE     ',  18.0000,2,     0.189,    27.011,   3,  27,1.04000, -45.0412,   1
  3034,'SNYDER 1    ',  22.0000,2,    -0.263,     5.807,   3,  27,1.03000, -35.8279,   1
  3039,'ROSCOE 2    ',  13.8000,2,     0.737,    19.227,   3,  27,1.04000, -40.3590,   1
  3045,'SILVER 4    ',  13.8000,2,     0.301,     9.626,   3,  27,1.04000, -38.7799,   1
  3048,'ROSCOE 5    ', 500.0000,2,    -9.162,   821.564,   3,  27,1.05053, -47.1169,   1
  3055,'WINGATE     ',  13.8000,2,     0.669,    24.689,   3,  27,1.04000, -42.2327,   1
  3056,'WINGATE     ',  13.8000,2,     0.410,    13.072,   3,  27,1.04000, -41.2500,   1
  3057,'WINGATE     ',  13.8000,2,     0.283,    13.463,   3,  27,1.04000, -41.3106,   1
  3060,'STERLING    ',  18.0000,2,     0.269,     7.100,   3,  27,1.04000, -39.8112,   1
  3061,'STERLING    ',  18.0000,2,     0.395,     9.944,   3,  27,1.04000, -40.6386,   1
  3062,'STERLING    ',  18.0000,2,     0.550,    19.683,   3,  27,1.04000, -41.6610,   1
  3063,'STERLING    ',  18.0000,2,     0.398,    13.839,   3,  27,1.04000, -41.2201,   1
  3068,'TRENT 1     ',  20.0000,2,     0.319,    13.853,   3,  27,1.04000, -40.9421,   1
  3071,'NOLAN 1     ',  24.0000,2,     0.048,     6.021,   3,  27,1.00672, -41.1271,   1
  3081,'HERMLEIG    ',  20.0000,2,     0.358,     9.828,   3,  27,1.04000, -39.0069,   1
  3084,'MERKEL 1    ',  13.8000,2,     0.323,     6.675,   3,  27,1.00133, -39.7208,   1
  3092,'ABILENE     ',  13.8000,2,     0.678,    14.840,   3,  27,1.04000, -42.7530,   1
  3095,'MERKEL 2    ',  18.0000,2,     0.193,     9.786,   3,  27,1.04000, -41.3782,   1
  3098,'FLUVANNA    ',  13.8000,2,     0.172,     4.226,   3,  27,1.04000, -34.6968,   1
  3106,'BUCHANAN    ',  13.2000,3,    -0.602,    20.104,   3,  28,1.00000, -51.0582,   1
  3118,'SYNDER 2    ',  13.8000,2,     0.314,    12.960,   3,  27,1.00219, -36.8870,   1
  3122,'ROSCOE 1    ',  18.0000,2,     0.301,     3.684,   3,  27,1.00000, -36.0349,   1
  3127,'SWEETWAT    ', 115.0000,2,    -2.127,    26.132,   3,  27,1.01855, -39.9882,   1
  3129,'ROSCOE 3    ', 115.0000,2,    -3.803,    30.894,   3,  27,1.02357, -39.6355,   1
  3131,'TUSOCOLA    ', 115.0000,2,    -6.342,    61.220,   3,  27,1.02000, -43.4249,   1
  4010,'SARITA 3    ',  20.0000,2,    -0.208,    40.919,   4,  21,1.03000, -88.1767,   1
  4026,'CHRISTIN    ',  13.8000,2,     5.113,    85.072,   4,  20,1.03000, -61.9697,   1
  4028,'FANNIN 0    ', 230.0000,1,     0.000,     0.000,   4,  21,1.01181, -57.9444,   1
  4029,'FANNIN 1    ', 115.0000,1,     0.646,    48.429,   4,  21,1.01260, -59.6167,   1
  4030,'FANNIN 2    ',  13.8000,3,     0.000,     0.000,   4,  21,1.01000, -56.4150,   1
  4047,'FALCON H    ',  13.8000,2,     0.337,    67.864,   4,  19,1.02000, -85.5851,   1
  4050,'SEBASTIA    ',  13.8000,2,     0.513,    15.141,   4,  19,1.00987, -98.7793,   1
  4058,'GREGORY     ',  13.8000,2,     0.122,     7.432,   4,  21,1.03000, -78.7424,   1
  4059,'GREGORY     ',  13.8000,2,    -0.002,     8.781,   4,  21,1.03000, -78.9596,   1
  4060,'GREGORY     ',  13.8000,2,     0.074,     5.151,   4,  21,1.03000, -78.1355,   1
  4061,'GREGORY     ',  13.8000,2,     0.105,     7.547,   4,  21,1.03000, -78.4985,   1
  4062,'GREGORY     ',  13.8000,2,    -0.002,     6.035,   4,  21,1.03000, -78.0991,   1
  4063,'GREGORY     ',  13.8000,2,     0.197,     7.421,   4,  21,1.03000, -78.4663,   1
  4082,'CORPUS C    ',  13.8000,2,     0.607,    16.760,   4,  21,1.04000, -84.1545,   1
  4083,'CORPUS C    ',  13.8000,2,     0.661,    18.193,   4,  21,1.04000, -84.3096,   1
  4084,'CORPUS C    ',  13.8000,2,     1.495,    33.361,   4,  21,1.04000, -85.1315,   1
  4085,'CORPUS C    ',  13.8000,2,     1.375,    38.919,   4,  21,1.04000, -83.7528,   1
  4105,'TAFT 2 1    ',  18.0000,2,     0.999,    43.136,   4,  21,1.01000, -82.6767,   1
  4115,'LAREDO 1    ',  13.8000,2,     7.453,   129.317,   4,  20,1.04000, -80.5395,   1
  4116,'LAREDO 1    ',  13.8000,2,     5.879,   122.962,   4,  20,1.04000, -80.4864,   1
  4142,'SARITA 1    ',  13.8000,2,     6.598,   104.336,   4,  21,1.04000, -86.9933,   1
  4153,'ARMSTRON    ',  18.0000,2,    12.497,   217.000,   4,  21,1.04000, -89.2469,   1
  4160,'CORPUS C    ',  13.8000,2,     1.524,    42.511,   4,  21,1.03000, -81.6985,   1
  4161,'CORPUS C    ',  13.8000,2,     0.722,    17.345,   4,  21,1.03000, -80.5639,   1
  4162,'CORPUS C    ',  13.8000,2,     0.368,    17.528,   4,  21,1.03000, -80.5906,   1
  4166,'SARITA 2    ',  13.8000,2,    -0.161,    32.848,   4,  21,1.01358, -87.5877,   1
  4173,'REFUGIO     ', 115.0000,1,    -1.682,    20.986,   4,  21,0.98890, -68.4355,   1
  4177,'BRUNI 1     ',  13.8000,2,    -2.290,    52.582,   4,  20,1.04000, -81.8348,   1
  4181,'TAFT 1 0    ', 230.0000,2,    -2.108,    80.185,   4,  21,1.01606, -78.6746,   1
  4183,'SAN PERL    ', 230.0000,2,    -2.165,   226.062,   4,  19,1.02536, -91.6278,   1
  4192,'BROWNSVI    ', 230.0000,2,     8.934,   336.575,   4,  19,1.02000, -94.1900,   1
  4194,'SEBASTIA    ', 115.0000,2,   -15.859,   354.779,   4,  19,1.02000,-100.4884,   1
  5020,'JACKSBOR    ',  13.8000,2,     1.258,    38.338,   5,  12,1.02917, -46.8546,   1
  5037,'DALLAS 1    ',  13.2000,2,     1.423,    89.600,   5,  16,1.02494, -49.6707,   1
  5038,'DALLAS 1    ',  13.2000,2,     1.551,    86.815,   5,  16,1.02475, -49.6237,   1
  5039,'DALLAS 1    ',  13.2000,2,     2.713,   197.386,   5,  16,1.02728, -50.4748,   1
  5040,'DALLAS 1    ',  13.2000,2,     0.621,    66.314,   5,  16,1.02357, -49.1496,   1
  5041,'DALLAS 1    ',  13.2000,2,     0.938,    95.408,   5,  16,1.02536, -49.7595,   1
  5042,'DALLAS 1    ',  13.2000,2,     1.504,    81.009,   5,  16,1.02439, -49.5145,   1
  5057,'GRAHAM 2    ',  13.8000,2,     0.387,    70.904,   5,  12,1.02868, -46.1305,   1
  5058,'GRAHAM 3    ',  13.8000,2,     0.328,    48.694,   5,  12,1.02644, -45.5250,   1
  5067,'ARLINGTO    ',  13.8000,2,     2.839,   136.394,   5,  17,1.03000, -49.3901,   1
  5068,'ARLINGTO    ',  13.8000,2,     2.076,   129.880,   5,  17,1.03000, -49.3154,   1
  5069,'ARLINGTO    ',  13.8000,2,     1.656,   122.100,   5,  17,1.03000, -49.2163,   1
  5089,'CLIFTON     ',  13.8000,2,     0.242,    27.255,   5,  18,1.01000, -54.1947,   1
  5166,'DENTON 1    ',  13.8000,2,     2.249,    76.160,   5,  17,1.04000, -50.5825,   1
  5198,'BRYSON 1    ',  18.0000,2,     0.268,    79.610,   5,  12,1.03046, -47.7084,   1
  5206,'POOLVILL    ',  13.8000,2,     0.228,    48.369,   5,  12,1.02726, -47.1934,   1
  5207,'POOLVILL    ',  13.8000,2,     0.570,    89.977,   5,  12,1.02976, -47.9126,   1
  5208,'POOLVILL    ',  13.8000,2,     0.513,    71.527,   5,  12,1.02899, -47.6976,   1
  5238,'OLNEY 1     ',  18.0000,2,     4.666,   137.379,   5,  12,1.03089, -46.4583,   1
  5243,'GOLDTHWA    ',  13.8000,2,     3.890,    87.463,   5,  18,1.03741, -52.5936,   1
  5262,'GLEN ROS    ',  13.8000,2,     2.174,   155.262,   5,  18,1.02091, -43.5279,   1
  5263,'GLEN ROS    ',  13.8000,2,     3.595,   217.573,   5,  18,1.02357, -44.7401,   1
  5281,'TEMPLE 1    ',  13.8000,2,     1.237,    70.265,   5,  13,1.02346, -53.2158,   1
  5282,'TEMPLE 1    ',  13.8000,2,     1.302,    83.086,   5,  13,1.02438, -53.3497,   1
  5283,'TEMPLE 1    ',  13.8000,2,     0.772,   108.608,   5,  13,1.02561, -53.5210,   1
  5298,'MCKINNEY    ',  13.8000,2,     2.701,   127.474,   5,  16,1.04000, -51.3896,   1
  5299,'MCKINNEY    ',  13.8000,2,     1.336,    61.935,   5,  16,1.04000, -51.1793,   1
  5300,'MCKINNEY    ',  13.8000,2,     1.606,    74.637,   5,  16,1.04000, -51.2489,   1
  5302,'MCKINNEY    ',  13.8000,2,     1.411,    78.236,   5,  16,1.04000, -50.2835,   1
  5303,'MCKINNEY    ',  13.8000,2,     2.320,   104.889,   5,  16,1.04000, -50.6143,   1
  5319,'GRANBURY    ',  13.2000,2,     1.291,    63.797,   5,  18,1.02357, -47.6464,   1
  5320,'GRANBURY    ',  13.2000,2,     0.630,    57.728,   5,  18,1.02314, -47.5571,   1
  5321,'GRANBURY    ',  13.2000,2,     1.237,    66.686,   5,  18,1.02383, -47.6814,   1
  5324,'DALLAS 2    ',  13.8000,2,     1.132,    72.597,   5,  17,1.04000, -49.1481,   1
  5325,'DALLAS 2    ',  13.8000,2,     1.657,    72.561,   5,  17,1.04000, -49.1446,   1
  5326,'DALLAS 2    ',  13.8000,2,     2.910,   211.255,   5,  17,1.04000, -50.6298,   1
  5343,'LEWISVIL    ',  13.8000,2,     0.893,    48.888,   5,  17,1.04000, -51.7564,   1
  5360,'RIESEL 1    ',  13.8000,3,     0.848,    82.365,   5,  13,1.01000, -50.1820,   1
  5364,'BRIDGEPO    ',  13.8000,2,    -0.226,    85.461,   5,  12,1.02877, -48.1868,   1
  5365,'BRIDGEPO    ',  13.8000,2,    -0.043,    41.064,   5,  12,1.02633, -47.4968,   1
  5366,'BRIDGEPO    ',  13.8000,2,    -0.173,    36.101,   5,  12,1.02577, -47.3128,   1
  5367,'BRIDGEPO    ',  13.8000,2,    -0.078,    37.199,   5,  12,1.02586, -47.3581,   1
  5368,'BRIDGEPO    ',  13.8000,2,    -0.171,    55.910,   5,  12,1.02762, -47.8497,   1
  5369,'BRIDGEPO    ',  13.8000,2,    -0.179,    34.298,   5,  12,1.02549, -47.2328,   1
  5382,'ENNIS 2     ',  13.8000,2,     0.863,    74.235,   5,  14,1.04000, -50.5178,   1
  5383,'ENNIS 3     ',  13.8000,2,     0.794,    65.159,   5,  14,1.04000, -50.3881,   1
  5399,'ALBANY 1    ',  13.8000,2,     3.905,    92.760,   5,  15,1.04155, -46.2614,   1
  5415,'PALO PIN    ',  13.8000,2,     0.865,    37.368,   5,  12,1.03273, -47.8370,   1
  5416,'PALO PIN    ',  13.8000,2,     0.964,    36.951,   5,  12,1.03265, -47.8306,   1
  5417,'PALO PIN    ',  13.8000,2,     1.182,    41.916,   5,  12,1.03313, -47.9064,   1
  5418,'PALO PIN    ',  13.8000,2,     0.673,    43.325,   5,  12,1.03347, -47.9363,   1
  5419,'PALO PIN    ',  13.8000,2,     1.379,    73.901,   5,  12,1.03485, -48.1554,   1
  5444,'MIDLOTHI    ', 500.0000,2,   -12.024,   536.572,   5,  17,1.02537, -50.0740,   1
  6006,'BASTROP     ',  13.8000,2,    -0.086,    32.455,   6,  25,1.04000, -54.2549,   1
  6007,'BASTROP     ',  13.8000,2,     0.084,    50.289,   6,  25,1.04000, -53.6257,   1
  6008,'BASTROP     ',  13.8000,2,     0.097,    27.880,   6,  25,1.04000, -54.2192,   1
  6009,'BASTROP     ',  13.8000,2,     0.050,    16.662,   6,  25,1.04000, -53.9122,   1
  6010,'BASTROP     ',  13.8000,2,    -0.085,    23.935,   6,  25,1.04000, -54.1444,   1
  6030,'YOAKUM 0    ', 230.0000,1,     0.001,    10.866,   6,  24,1.01784, -58.6823,   1
  6042,'AUSTIN 3    ',  13.8000,2,     0.420,    11.429,   6,  23,1.04000, -54.6301,   1
  6062,'BRENHAM     ', 500.0000,1,    -0.423,    70.517,   6,  25,1.02814, -56.9120,   1
  6069,'MARION 1    ',  18.0000,2,     0.894,    52.326,   6,  22,1.03000, -57.3354,   1
  6070,'MARION 1    ',  18.0000,2,     0.455,    21.596,   6,  22,1.03000, -56.8284,   1
  6071,'MARION 1    ',  18.0000,2,     1.487,    65.950,   6,  22,1.03000, -57.4096,   1
  6072,'MARION 1    ',  18.0000,2,     0.665,    26.281,   6,  22,1.03000, -56.9828,   1
  6073,'MARION 1    ',  18.0000,2,     0.785,    39.342,   6,  22,1.03000, -57.2180,   1
  6074,'MARION 1    ',  18.0000,2,     0.539,    39.684,   6,  22,1.03000, -57.2215,   1
  6075,'LA GRANG    ', 500.0000,1,     3.051,   113.464,   6,  25,1.02556, -55.1750,   1
  6078,'LA GRANG    ',  22.0000,2,     0.000,     0.000,   6,  25,1.01778, -54.0891,   1
  6079,'LA GRANG    ',  22.0000,2,     0.000,     0.000,   6,  25,1.02203, -54.6709,   1
  6080,'LA GRANG    ',  22.0000,2,     0.000,     0.000,   6,  25,1.02064, -54.4874,   1
  6106,'WINCHEST    ',  13.8000,2,     1.154,    18.794,   6,  25,1.03445, -55.2365,   1
  6110,'ROCKDALE    ',  13.8000,2,     2.425,    88.351,   6,  25,1.04000, -53.3172,   1
  6111,'ROCKDALE    ',  13.8000,2,     2.520,    89.174,   6,  25,1.04000, -53.2060,   1
  6122,'HALLETTS    ', 115.0000,1,    -5.408,    28.210,   6,  24,0.98612, -63.5810,   1
  6145,'SAN ANTO    ',  13.8000,2,     1.478,    34.617,   6,  22,1.03000, -54.6058,   1
  6146,'SAN ANTO    ',  13.8000,2,     1.577,    35.943,   6,  22,1.03000, -54.7203,   1
  6147,'SAN ANTO    ',  13.8000,3,     1.841,    41.456,   6,  22,1.03000, -55.7878,   1
  6148,'SAN ANTO    ',  13.8000,2,     2.952,    67.718,   6,  22,1.03000, -56.6351,   1
  6149,'SAN ANTO    ',  13.8000,2,     6.450,   130.557,   6,  22,1.03000, -57.1497,   1
  6161,'SEGUIN 1    ', 500.0000,1,    -7.198,   412.313,   6,  22,1.03085, -57.1661,   1
  6164,'SEGUIN 1    ',  13.8000,2,     0.000,     0.000,   6,  22,1.03000, -56.5367,   1
  6165,'SEGUIN 1    ',  13.8000,2,     0.000,     0.000,   6,  22,1.03000, -56.4645,   1
  6166,'SEGUIN 1    ',  13.8000,2,     0.000,     0.000,   6,  22,1.03000, -56.8704,   1
  6167,'SEGUIN 1    ',  13.8000,2,     0.000,     0.000,   6,  22,1.03000, -56.6147,   1
  6173,'CUERO 2     ', 115.0000,1,     0.145,    33.536,   6,  24,1.01927, -60.2076,   1
  6188,'COLUMBUS    ', 230.0000,1,     0.978,    37.075,   6,  25,1.01527, -57.0683,   1
  6195,'INDUSTRY    ', 115.0000,1,    -1.036,    11.851,   6,  25,0.99666, -62.5400,   1
  6213,'MARBLE F    ',  13.8000,2,     0.531,    22.456,   6,  23,1.04145, -53.9833,   1
  6214,'MARBLE F    ',  13.8000,2,     0.818,    36.475,   6,  23,1.04000, -52.8070,   1
  6215,'MARBLE F    ',  13.8000,2,     3.440,   141.627,   6,  23,1.04210, -54.6368,   1
  6216,'MARBLE F    ',  13.8000,2,     1.589,    63.005,   6,  23,1.04125, -53.8461,   1
  6239,'ELMENDOR    ', 500.0000,1,     1.451,   821.895,   6,  22,1.03572, -57.6654,   1
  6243,'ELMENDOR    ',  13.8000,2,     0.000,     0.000,   6,  22,1.04000, -56.5764,   1
  6244,'ELMENDOR    ',  13.8000,2,     0.000,     0.000,   6,  22,1.04000, -55.8003,   1
  6245,'ELMENDOR    ',  13.8000,2,     0.000,     0.000,   6,  22,1.04000, -56.0904,   1
  6246,'ELMENDOR    ',  13.8000,2,     0.000,     0.000,   6,  22,1.04000, -56.8575,   1
  6247,'ELMENDOR    ',  13.8000,2,     0.000,     0.000,   6,  22,1.04000, -57.1788,   1
  6248,'ELMENDOR    ',  13.8000,2,     0.000,     0.000,   6,  22,1.04000, -56.6786,   1
  6249,'ELMENDOR    ',  13.8000,2,     0.000,     0.000,   6,  22,1.04000, -56.2379,   1
  6257,'AUSTIN 2    ',  13.8000,2,     0.723,    39.075,   6,  23,1.03387, -55.5631,   1
  6258,'AUSTIN 2    ',  13.8000,2,     0.229,    20.503,   6,  23,1.03179, -55.2353,   1
  6260,'AUSTIN 2    ',  13.8000,2,     0.464,    43.187,   6,  23,1.03346, -55.4905,   1
  6263,'KENEDY 0    ', 230.0000,1,    -4.950,   134.803,   6,  24,1.02076, -62.4898,   1
  6295,'CEDAR CR    ',  13.8000,2,     0.289,    51.660,   6,  23,1.03503, -55.3085,   1
  6296,'CEDAR CR    ',  13.8000,2,     0.459,    60.423,   6,  23,1.03530, -55.3519,   1
  6297,'CEDAR CR    ',  13.8000,2,     0.236,    22.211,   6,  23,1.03241, -54.9125,   1
  6302,'NEW BRAU    ',  22.0000,2,     0.332,    22.426,   6,  22,1.02394, -56.7187,   1
  6303,'NEW BRAU    ',  22.0000,2,     0.962,    66.146,   6,  22,1.02775, -57.2988,   1
  6304,'NEW BRAU    ',  22.0000,2,     0.370,    26.702,   6,  22,1.02489, -56.8594,   1
  6305,'NEW BRAU    ',  22.0000,2,     0.250,    22.162,   6,  22,1.02393, -56.7071,   1
  6341,'CHAPPELL    ', 115.0000,1,    -3.044,    33.298,   6,  25,1.01619, -63.4598,   1
  6349,'AUSTIN 1    ', 500.0000,2,    -8.941,   501.445,   6,  23,1.04000, -56.0617,   1
  7001,'INEZ 0      ', 115.0000,1,     0.000,     0.000,   7,   6,1.00636, -56.6955,   1
  7002,'PASADENA    ', 500.0000,1,     0.000,     0.000,   7,   4,1.03629, -54.8943,   1
  7003,'PASADENA    ', 230.0000,1,     0.000,     0.000,   7,   4,1.02962, -57.4413,   1
  7004,'PASADENA    ', 115.0000,1,     0.000,     0.000,   7,   4,1.02664, -60.2009,   1
  7005,'PASADENA    ',  13.8000,2,     0.000,     0.000,   7,   4,1.04000, -53.6445,   1
  7006,'PASADENA    ',  13.8000,2,     0.000,     0.000,   7,   4,1.04000, -54.1839,   1
  7007,'PASADENA    ',  13.8000,2,     0.000,     0.000,   7,   4,1.04000, -53.8244,   1
  7008,'PASADENA    ',  13.8000,2,     0.000,     0.000,   7,   4,1.04000, -53.7698,   1
  7009,'PASADENA    ',  13.8000,2,     0.000,     0.000,   7,   4,1.04000, -53.6420,   1
  7010,'PRAIRIE     ', 115.0000,1,     0.000,     0.000,   7,   5,1.00670, -64.2831,   1
  7011,'CONROE 1    ', 115.0000,1,     0.000,     0.000,   7,   5,1.02614, -63.9459,   1
  7012,'SIMONTON    ', 115.0000,1,     0.000,     0.000,   7,   3,1.00121, -62.1614,   1
  7013,'HOUSTON     ', 115.0000,1,     0.000,     0.000,   7,   5,1.01296, -63.5862,   1
  7014,'HOUSTON     ', 115.0000,1,     0.000,     0.000,   7,   4,1.01271, -62.6205,   1
  7015,'HOUSTON     ',  18.0000,2,     0.000,     0.000,   7,   4,1.01271, -62.6205,   1
  7016,'HOUSTON     ', 115.0000,1,     0.000,     0.000,   7,   4,1.02073, -60.8943,   1
  7017,'HOUSTON     ', 115.0000,1,     0.000,     0.000,   7,   3,1.01674, -63.1054,   1
  7018,'NURSERY     ', 500.0000,1,     0.000,     0.000,   7,   6,1.02398, -53.1327,   1
  7019,'NURSERY     ', 230.0000,1,     0.000,     0.000,   7,   6,1.01791, -55.9752,   1
  7020,'NURSERY     ', 115.0000,1,     0.000,     0.000,   7,   6,1.01936, -57.7856,   1
  7021,'NURSERY     ',  18.0000,2,     0.000,     0.000,   7,   6,1.02398, -53.1327,   1
  7022,'NURSERY     ',  18.0000,2,     0.000,     0.000,   7,   6,1.02398, -53.1327,   1
  7023,'NURSERY     ',  18.0000,2,     0.000,     0.000,   7,   6,1.02398, -53.1327,   1
  7024,'NURSERY     ',  18.0000,2,     0.000,     0.000,   7,   6,1.02398, -53.1327,   1
  7025,'NURSERY     ',  18.0000,2,     0.000,     0.000,   7,   6,1.02398, -53.1327,   1
  7026,'BACLIFF     ', 115.0000,1,     0.000,     0.000,   7,   4,1.02262, -60.7400,   1
  7027,'SPRING 1    ', 115.0000,1,     0.000,     0.000,   7,   5,1.01530, -63.0717,   1
  7028,'HOUSTON     ', 115.0000,1,     0.000,     0.000,   7,   3,1.02000, -62.7969,   1
  7029,'PORT LAV    ', 230.0000,1,     0.000,     0.000,   7,   6,1.01087, -54.6825,   1
  7030,'PORT LAV    ', 115.0000,1,     0.000,     0.000,   7,   6,1.00692, -60.7880,   1
  7031,'PORT LAV    ',  13.8000,1,     0.000,     0.000,   7,   6,1.01277, -53.4748,   1
  7032,'PORT LAV    ',  13.8000,1,     0.000,     0.000,   7,   6,1.01140, -54.3708,   1
  7033,'PORT LAV    ',  13.8000,1,     0.000,     0.000,   7,   6,1.01140, -54.3708,   1
  7034,'PORT LAV    ',  13.8000,1,     0.000,     0.000,   7,   6,1.01118, -54.4996,   1
  7035,'CONROE 5    ', 230.0000,1,     0.000,     0.000,   7,   5,1.02788, -60.1077,   1
  7036,'CONROE 5    ', 115.0000,1,     0.000,     0.000,   7,   5,1.02186, -61.6554,   1
  7037,'SUGAR LA    ', 500.0000,1,     0.000,     0.000,   7,   3,1.03162, -57.7296,   1
  7038,'SUGAR LA    ', 230.0000,1,     0.000,     0.000,   7,   3,1.02278, -58.7934,   1
  7039,'SUGAR LA    ', 115.0000,1,     0.000,     0.000,   7,   3,1.01792, -61.6106,   1
  7040,'DAYTON 0    ', 230.0000,1,     0.000,     0.000,   7,   4,1.02906, -57.9132,   1
  7041,'DAYTON 1    ', 115.0000,1,     0.000,     0.000,   7,   4,1.02275, -60.3255,   1
  7042,'VICTORIA    ', 500.0000,1,     0.000,     0.000,   7,   6,1.02190, -52.5650,   1
  7043,'VICTORIA    ', 230.0000,1,     0.000,     0.000,   7,   6,1.01942, -54.8210,   1
  7044,'VICTORIA    ', 115.0000,1,     0.000,     0.000,   7,   6,1.00876, -56.2764,   1
  7045,'VICTORIA    ',  20.0000,2,     0.000,     0.000,   7,   6,1.03000, -51.9713,   1
  7046,'VICTORIA    ',  20.0000,2,     0.000,     0.000,   7,   6,1.03000, -52.2945,   1
  7047,'KATY 1 0    ', 500.0000,1,     0.000,     0.000,   7,   3,1.03093, -57.9312,   1
  7048,'KATY 1 1    ', 230.0000,1,     0.000,     0.000,   7,   3,1.02442, -59.2697,   1
  7049,'KATY 1 2    ', 115.0000,1,     0.000,     0.000,   7,   3,1.02163, -62.1526,   1
  7050,'MAGNOLIA    ', 115.0000,1,     0.000,     0.000,   7,   5,1.01233, -63.8206,   1
  7051,'HOUSTON     ', 115.0000,1,     0.000,     0.000,   7,   3,1.01683, -63.1371,   1
  7052,'MISSOURI    ', 115.0000,1,     0.000,     0.000,   7,   3,1.01475, -62.1420,   1
  7053,'RICHMOND    ', 115.0000,1,     0.000,     0.000,   7,   3,1.02170, -59.3049,   1
  7054,'HOUSTON     ', 115.0000,1,     0.000,     0.000,   7,   4,1.00930, -63.2610,   1
  7055,'HOUSTON     ', 115.0000,1,     0.000,     0.000,   7,   3,1.01711, -61.8286,   1
  7056,'SPRING 8    ', 230.0000,1,     0.000,     0.000,   7,   5,1.02436, -60.3101,   1
  7057,'SPRING 8    ', 115.0000,1,     0.000,     0.000,   7,   5,1.01502, -62.8685,   1
  7058,'POINT CO    ', 500.0000,1,     0.000,     0.000,   7,   6,1.01010, -49.5569,   1
  7059,'POINT CO    ', 230.0000,1,     0.000,     0.000,   7,   6,1.01235, -51.1293,   1
  7060,'POINT CO    ', 115.0000,1,     0.000,     0.000,   7,   6,1.02001, -53.6115,   1
  7061,'POINT CO    ',  13.8000,2,     0.000,     0.000,   7,   6,1.00707, -49.0792,   1
  7062,'POINT CO    ',  13.8000,2,     0.000,     0.000,   7,   6,1.00734, -49.1201,   1
  7063,'POINT CO    ',  13.8000,2,     0.000,     0.000,   7,   6,1.00714, -49.0848,   1
  7064,'POINT CO    ',  13.8000,2,     0.000,     0.000,   7,   6,1.00780, -49.1965,   1
  7065,'POINT CO    ',  13.8000,2,     0.000,     0.000,   7,   6,1.00761, -49.1598,   1
  7066,'POINT CO    ',  13.8000,2,     0.000,     0.000,   7,   6,1.00741, -49.1301,   1
  7067,'HOUSTON     ', 115.0000,1,     0.000,     0.000,   7,   3,1.00475, -64.1855,   1
  7068,'EL CAMPO    ', 230.0000,1,     0.000,     0.000,   7,   1,1.00953, -54.5258,   1
  7069,'EL CAMPO    ', 115.0000,1,     0.000,     0.000,   7,   1,1.00621, -57.6488,   1
  7070,'HOUSTON     ', 115.0000,1,     0.000,     0.000,   7,   4,1.01405, -61.6074,   1
  7071,'PORT O C    ', 115.0000,1,     0.000,     0.000,   7,   6,0.99101, -52.7838,   1
  7072,'DICKINSO    ', 115.0000,1,     0.000,     0.000,   7,   4,1.02039, -60.4536,   1
  7073,'GALVESTO    ', 230.0000,1,     0.000,     0.000,   7,   2,1.02695, -58.1432,   1
  7074,'GALVESTO    ', 115.0000,1,     0.000,     0.000,   7,   2,1.02380, -59.7518,   1
  7075,'HOUSTON     ', 115.0000,1,     0.000,     0.000,   7,   4,1.03000, -60.9113,   1
  7076,'BAYTOWN     ', 500.0000,1,     0.000,     0.000,   7,   4,1.03807, -54.4851,   1
  7077,'BAYTOWN     ', 230.0000,1,     0.000,     0.000,   7,   4,1.03491, -55.9565,   1
  7078,'BAYTOWN     ', 115.0000,1,     0.000,     0.000,   7,   4,1.02753, -58.9623,   1
  7079,'BAYTOWN     ',  13.8000,2,     0.000,     0.000,   7,   4,1.04000, -53.0229,   1
  7080,'BAYTOWN     ',  13.8000,2,     0.000,     0.000,   7,   4,1.04000, -52.6107,   1
  7081,'BAYTOWN     ',  13.8000,2,     0.000,     0.000,   7,   4,1.04000, -52.5938,   1
  7082,'BAYTOWN     ',  13.8000,2,     0.000,     0.000,   7,   4,1.04000, -52.9846,   1
  7083,'LEAGUE C    ', 230.0000,1,     0.000,     0.000,   7,   4,1.02719, -57.5883,   1
  7084,'LEAGUE C    ', 115.0000,1,     0.000,     0.000,   7,   4,1.02150, -59.6504,   1
  7085,'LIVERPOO    ', 115.0000,1,     0.000,     0.000,   7,   2,1.01213, -60.0285,   1
  7086,'HOUSTON     ', 115.0000,1,     0.000,     0.000,   7,   4,1.01314, -62.2827,   1
  7087,'SUGAR LA    ', 115.0000,1,     0.000,     0.000,   7,   3,1.01683, -61.1953,   1
  7088,'RICHMOND    ', 115.0000,1,     0.000,     0.000,   7,   3,0.99968, -62.8341,   1
  7089,'HOUSTON     ', 115.0000,1,     0.000,     0.000,   7,   3,1.03000, -63.6641,   1
  7090,'PINEHURS    ', 115.0000,1,     0.000,     0.000,   7,   5,1.01399, -63.4585,   1
  7091,'PEARLAND    ', 115.0000,1,     0.000,     0.000,   7,   3,1.03000, -63.5296,   1
  7092,'HOUSTON     ', 115.0000,1,     0.000,     0.000,   7,   3,1.01238, -62.7613,   1
  7093,'HOUSTON     ', 115.0000,1,     0.000,     0.000,   7,   3,1.00835, -63.2040,   1
  7094,'HOUSTON     ', 115.0000,1,     0.000,     0.000,   7,   3,1.02275, -63.6889,   1
  7095,'WADSWORT    ', 500.0000,1,     0.000,     0.000,   7,   1,0.98126, -41.9940,   1
  7096,'WADSWORT    ', 230.0000,1,     0.000,     0.000,   7,   1,0.99255, -45.2441,   1
  7097,'WADSWORT    ', 115.0000,1,     0.000,     0.000,   7,   1,0.99549, -46.7429,   1
  7098,'WADSWORT    ',  13.8000,3,     0.000,     0.000,   7,   1,1.00000,   0.0000,   1
  7099,'WADSWORT    ',  13.8000,2,     0.000,     0.000,   7,   1,1.00000, -33.2697,   1
  7100,'HOUSTON     ', 115.0000,1,     0.000,     0.000,   7,   4,1.01383, -61.9879,   1
  7101,'HOUSTON     ', 115.0000,1,     0.000,     0.000,   7,   3,1.01607, -62.4039,   1
  7102,'TOMBALL     ', 115.0000,1,     0.000,     0.000,   7,   5,1.00960, -63.4407,   1
  7103,'HOUSTON     ', 115.0000,1,     0.000,     0.000,   7,   4,1.01399, -62.1631,   1
  7104,'DEER PAR    ', 500.0000,1,     0.000,     0.000,   7,   4,1.03614, -54.6734,   1
  7105,'DEER PAR    ', 230.0000,1,     0.000,     0.000,   7,   4,1.02947, -57.1442,   1
  7106,'DEER PAR    ', 115.0000,1,     0.000,     0.000,   7,   4,1.02732, -59.7732,   1
  7107,'DEER PAR    ',  24.0000,2,     0.000,     0.000,   7,   4,1.04000, -54.2085,   1
  7108,'DEER PAR    ',  24.0000,2,     0.000,     0.000,   7,   4,1.03614, -54.6734,   1
  7109,'DEER PAR    ',  24.0000,2,     0.000,     0.000,   7,   4,1.03614, -54.6734,   1
  7110,'DEER PAR    ',  24.0000,2,     0.000,     0.000,   7,   4,1.04000, -53.5299,   1
  7111,'DEER PAR    ',  24.0000,2,     0.000,     0.000,   7,   4,1.04000, -53.5017,   1
  7112,'DEER PAR    ',  24.0000,2,     0.000,     0.000,   7,   4,1.04000, -53.9660,   1
  7113,'DEER PAR    ',  24.0000,2,     0.000,     0.000,   7,   4,1.04000, -53.3041,   1
  7114,'DEER PAR    ',  24.0000,2,     0.000,     0.000,   7,   4,1.04000, -54.0131,   1
  7115,'DEER PAR    ',  24.0000,2,     0.000,     0.000,   7,   4,1.04000, -54.0127,   1
  7116,'WALLIS 0    ', 115.0000,1,     0.000,     0.000,   7,   1,1.00025, -62.5258,   1
  7117,'HOUSTON     ', 115.0000,1,     0.000,     0.000,   7,   3,1.01491, -62.8702,   1
  7118,'SPRING 4    ', 115.0000,1,     0.000,     0.000,   7,   5,1.00955, -63.3358,   1